14
mol to xyz file
N             4.4882        7.7491        1.6925    
N             5.9178        10.2746       1.6925    
C             5.8665        7.8337        1.6925    
C             4.5395        10.1900       1.6925    
O             6.6789        6.7417        1.6925    
O             3.7271        11.2820       1.6925    
C             3.8432        8.9792        1.6925    
C             6.5628        9.0445        1.6925    
O             2.4934        9.1543        1.6925    
O             7.9126        8.8694        1.6925    
B             7.9432        7.4300        1.6925    
B             2.4628        10.5937       1.6925    
X             8.5831        7.0389        1.6925    
X             1.8229        10.9848       1.6925    
0         2     A     
0         6     A     
1         7     A     
1         3     A     
2         7     A     
2         4     S     
3         6     A     
3         5     S     
4         10    S     
5         11    S     
6         8     S     
7         9     S     
8         11    S     
9         10    S     
10        12    S     
11        13    S     
