89
mol to xyz file
C             9.6208        28.9111       28.9113   
C             8.6841        29.8535       27.9673   
C             10.5635       27.9668       27.9744   
C             10.5620       29.8508       29.8522   
C             8.6775        27.9746       29.8552   
C             9.0892        31.2662       28.3785   
C             10.1600       26.5560       28.3919   
C             10.1551       31.2636       29.4494   
C             9.0886        26.5600       29.4578   
C             9.0890        28.3794       31.2677   
C             9.1006        29.4493       26.5565   
C             10.1594       29.4444       31.2649   
C             10.1673       28.3790       26.5605   
C             11.9763       28.3779       28.3786   
C             7.2663        28.3896       29.4505   
C             11.9746       29.4475       29.4449   
C             7.2703        29.4565       28.3801   
C             8.4872        32.5771       27.8277   
C             10.7684       25.2455       27.8489   
C             10.7147       32.5697       30.0525   
C             8.5459        25.2539       30.0777   
C             8.5379        27.7773       32.5786   
C             8.5573        30.0591       25.2462   
C             10.7630       30.0032       32.5705   
C             10.7857       27.8352       25.2550   
C             13.2870       27.8262       27.7773   
C             5.9553        27.8485       30.0607   
C             13.2802       30.0518       30.0034   
C             5.9645        30.0759       27.8364   
C             9.0389        33.8776       28.4316   
C             10.2280       23.9457       28.4639   
C             10.1157       33.8738       29.5060   
C             9.1543        23.9500       29.5414   
C             9.1427        28.3278       33.8792   
C             9.1719        29.5177       23.9466   
C             10.2167       29.4047       33.8747   
C             10.2492       28.4437       23.9510   
C             14.5876       28.4311       28.3280   
C             4.6561        28.4617       29.5183   
C             14.5848       29.5056       29.4049   
C             4.6607        29.5402       28.4456   
C             10.4033       35.3316       29.8965   
C             8.8758        22.4928       29.9404   
C             8.6524        35.3382       28.1527   
C             10.6174       22.4851       28.1867   
C             10.6087       29.6914       35.3319   
C             10.6474       28.1639       22.4936   
C             8.8638        27.9415       35.3398   
C             8.8957        29.9069       22.4861   
C             16.0430       29.8964       29.6911   
C             3.2031        29.9365       28.1648   
C             16.0483       28.1520       27.9410   
C             3.1959        28.1846       29.9083   
O             11.3955       35.7987       30.9349   
O             7.8902        22.0256       30.9833   
O             7.6113        35.8144       27.1686   
O             11.6513       22.0086       27.1946   
O             16.5096       30.9349       30.6827   
O             2.7348        30.9803       27.1795   
O             16.5237       27.1682       26.9003   
O             2.7193        27.1923       30.9420   
O             11.6473       30.6825       35.7993   
O             11.6910       27.1778       22.0253   
O             7.8790        26.8999       35.8155   
O             7.9032        30.9399       22.0096   
H             7.6768        32.5790       27.0258   
H             11.5798       25.2436       27.0481   
H             11.5154       32.5656       30.8641   
H             7.7461        25.2578       30.8900   
H             7.7358        26.9672       32.5801   
H             7.7566        30.8708       25.2443   
H             11.5742       30.8040       32.5660   
H             11.5979       27.0353       25.2595   
H             13.2893       27.0241       26.9671   
H             5.9523        27.0466       30.8709   
H             13.2750       30.8617       30.8058   
H             5.9684        30.8876       27.0357   
N             9.7803        21.6070       29.1009   
N             9.4953        36.2167       29.0606   
N             9.7730        28.7839       36.2172   
N             9.8086        29.0689       21.6085   
N             16.9273       29.0601       28.7831   
N             2.3181        29.0987       29.0713   
X             9.8129        20.8586       29.1365   
X             9.4626        36.9650       29.0972   
X             9.8095        28.7506       36.9656   
X             9.8439        29.1011       20.8600   
X             17.6756       29.0970       28.7502   
X             1.5696        29.1335       29.1030   
0         3     S     
0         4     S     
0         1     S     
0         2     S     
1         10    S     
1         5     S     
1         16    S     
2         12    S     
2         13    S     
2         6     S     
3         15    S     
3         7     S     
3         11    S     
4         8     S     
4         14    S     
4         9     S     
5         7     A     
5         17    A     
6         8     A     
6         18    A     
7         19    A     
8         20    A     
9         11    A     
9         21    A     
10        12    A     
10        22    A     
11        23    A     
12        24    A     
13        15    A     
13        25    A     
14        16    A     
14        26    A     
15        27    A     
16        28    A     
17        29    A     
18        30    A     
19        31    A     
20        32    A     
21        33    A     
22        34    A     
23        35    A     
24        36    A     
25        37    A     
26        38    A     
27        39    A     
28        40    A     
29        31    A     
30        32    A     
33        35    A     
34        36    A     
37        39    A     
38        40    A     
41        53    D     
42        54    D     
43        55    D     
44        56    D     
45        61    D     
46        62    D     
47        63    D     
48        64    D     
49        57    D     
50        58    D     
51        59    D     
52        60    D     
77        83    S     
78        84    S     
79        85    S     
80        86    S     
81        87    S     
82        88    S     
17        65    S     
18        66    S     
19        67    S     
20        68    S     
21        69    S     
22        70    S     
23        71    S     
24        72    S     
25        73    S     
26        74    S     
27        75    S     
28        76    S     
29        43    S     
30        44    S     
31        41    S     
32        42    S     
33        47    S     
34        48    S     
35        45    S     
36        46    S     
37        51    S     
38        52    S     
39        49    S     
40        50    S     
41        78    S     
42        77    S     
43        78    S     
44        77    S     
45        79    S     
46        80    S     
47        79    S     
48        80    S     
49        81    S     
50        82    S     
51        81    S     
52        82    S     
