124
mol to xyz file
C             2.5000        44.5208       9.0622    
C             2.5000        44.5208       15.9378   
C             2.5000        30.4790       15.9378   
C             2.5000        30.4790       9.0622    
C             2.5000        40.9377       19.5209   
C             2.5000        40.9377       5.4791    
C             2.5000        34.0621       5.4791    
C             2.5000        34.0621       19.5209   
C             2.5000        43.1737       9.5014    
C             2.5000        43.1737       15.4986   
C             2.5000        31.8261       15.4986   
C             2.5000        31.8261       9.5014    
C             2.5000        40.4985       18.1738   
C             2.5000        40.4985       6.8262    
C             2.5000        34.5013       6.8262    
C             2.5000        34.5013       18.1738   
C             2.5000        42.8688       10.8829   
C             2.5000        42.8688       14.1171   
C             2.5000        32.1309       14.1171   
C             2.5000        32.1309       10.8829   
C             2.5000        39.1170       17.8690   
C             2.5000        39.1170       7.1310    
C             2.5000        35.8828       7.1310    
C             2.5000        35.8828       17.8690   
C             2.5000        43.9325       11.8039   
C             2.5000        43.9325       13.1961   
C             2.5000        31.0673       13.1961   
C             2.5000        31.0673       11.8039   
C             2.5000        38.1960       18.9326   
C             2.5000        38.1960       6.0674    
C             2.5000        36.8038       6.0674    
C             2.5000        36.8038       18.9326   
C             2.5000        45.2624       11.3682   
C             2.5000        45.2624       13.6318   
C             2.5000        29.7373       13.6318   
C             2.5000        29.7373       11.3682   
C             2.5000        38.6316       20.2625   
C             2.5000        38.6316       4.7375    
C             2.5000        36.3681       4.7375    
C             2.5000        36.3681       20.2625   
C             2.5000        45.5729       9.9981    
C             2.5000        45.5729       15.0019   
C             2.5000        29.4269       15.0019   
C             2.5000        29.4269       9.9981    
C             2.5000        40.0018       20.5730   
C             2.5000        40.0018       4.4270    
C             2.5000        34.9980       4.4270    
C             2.5000        34.9980       20.5730   
C             2.5000        42.2230       8.6203    
C             2.5000        42.2230       16.3797   
C             2.5000        32.7768       16.3797   
C             2.5000        32.7768       8.6203    
C             2.5000        41.3796       17.2231   
C             2.5000        41.3796       7.7769    
C             2.5000        33.6201       7.7769    
C             2.5000        33.6201       17.2231   
H             2.5000        44.7511       7.9457    
H             2.5000        44.7511       17.0543   
H             2.5000        30.2487       17.0543   
H             2.5000        30.2487       7.9457    
H             2.5000        42.0541       19.7512   
H             2.5000        42.0541       5.2488    
H             2.5000        32.9456       5.2488    
H             2.5000        32.9456       19.7512   
H             2.5000        41.7819       11.2268   
H             2.5000        41.7819       13.7733   
H             2.5000        33.2178       13.7733   
H             2.5000        33.2178       11.2268   
H             2.5000        38.7732       16.7821   
H             2.5000        38.7732       8.2179    
H             2.5000        36.2266       8.2179    
H             2.5000        36.2266       16.7821   
H             2.5000        46.6549       9.6393    
H             2.5000        46.6549       15.3607   
H             2.5109        28.4602       15.3352   
H             2.4891        28.4602       9.6648    
H             2.5104        40.3346       21.5403   
H             2.4896        40.3346       3.4598    
H             2.5104        34.6652       3.4598    
H             2.4896        34.6652       21.5403   
C             2.5000        37.4999       21.1928   
C             2.5000        37.4999       3.8072    
C             2.5000        28.6198       12.5000   
C             2.5000        46.3795       12.5000   
C             1.4796        37.1976       2.5371    
C             3.5205        37.1976       22.4628   
O             1.7206        36.7914       1.1302    
O             3.2794        36.7914       23.8698   
C             1.4796        37.8022       22.4628   
C             3.5205        37.8022       2.5371    
O             1.7206        38.2084       23.8698   
O             3.2794        38.2084       1.1302    
C             1.4572        27.4344       12.8349   
C             3.5428        27.4344       12.1651   
O             1.7167        26.0688       13.2448   
O             3.2833        26.0688       11.7552   
C             1.4564        47.5647       12.1693   
C             3.5436        47.5647       12.8306   
O             1.7138        48.9304       11.7583   
O             3.2862        48.9304       13.2417   
B             2.5000        37.4999       0.0000    
B             2.5000        49.9996       12.5000   
H             0.8136        36.4423       2.9211    
H             4.1864        36.4423       22.0789   
H             1.0415        38.1665       2.3705    
H             3.9585        38.1665       22.6295   
H             1.0415        36.8332       22.6295   
H             3.9585        36.8332       2.3705    
H             0.8136        38.5574       22.0789   
H             4.1864        38.5574       2.9211    
H             1.0197        27.2676       11.8686   
H             3.9803        27.2676       13.1314   
H             0.8148        27.8575       13.5928   
H             4.1852        27.8575       11.4072   
H             1.0221        47.7316       13.1373   
H             3.9779        47.7316       11.8626   
H             0.8132        47.1397       11.4137   
H             4.1868        47.1397       13.5863   
X             2.3376        37.3522       -0.7172   
X             2.3617        50.7251       12.3695   
B             2.5000        37.4999       25.0000   
H             2.3376        37.6475       25.7172   
B             2.5000        24.9996       12.5000   
X             2.3622        24.2741       12.6310   
0         40    A     
0         8     A     
0         56    S     
1         41    A     
1         9     A     
1         57    S     
2         10    A     
2         42    A     
2         58    S     
3         11    A     
3         43    A     
3         59    S     
4         60    S     
4         44    A     
4         12    A     
5         13    A     
5         61    S     
5         45    A     
6         14    A     
6         46    A     
6         62    S     
7         47    A     
7         63    S     
7         15    A     
8         48    S     
8         16    A     
9         17    A     
9         49    S     
10        18    A     
10        50    S     
11        51    S     
11        19    A     
12        20    A     
12        52    S     
13        53    S     
13        21    A     
14        22    A     
14        54    S     
15        23    A     
15        55    S     
16        24    A     
16        64    S     
17        25    A     
17        65    S     
18        66    S     
18        26    A     
19        67    S     
19        27    A     
20        28    A     
20        68    S     
21        69    S     
21        29    A     
22        70    S     
22        30    A     
23        31    A     
23        71    S     
24        32    A     
24        25    S     
25        33    A     
26        34    A     
26        27    S     
27        35    A     
28        31    S     
28        36    A     
29        30    S     
29        37    A     
30        38    A     
31        39    A     
32        40    A     
32        83    S     
33        83    S     
33        41    A     
34        82    S     
34        42    A     
35        43    A     
35        82    S     
36        80    S     
36        44    A     
37        81    S     
37        45    A     
38        81    S     
38        46    A     
39        80    S     
39        47    A     
40        72    S     
41        73    S     
42        74    S     
43        75    S     
44        76    S     
45        77    S     
46        78    S     
47        79    S     
48        53    T     
49        52    T     
50        55    T     
51        54    T     
80        85    S     
80        88    S     
81        89    S     
81        84    S     
82        92    S     
82        93    S     
83        97    S     
83        96    S     
84        104   S     
84        102   S     
84        86    S     
85        105   S     
85        103   S     
85        87    S     
86        100   S     
88        108   S     
88        106   S     
88        90    S     
89        109   S     
89        107   S     
89        91    S     
91        100   S     
92        112   S     
92        94    S     
92        110   S     
93        113   S     
93        95    S     
93        111   S     
96        116   S     
96        98    S     
96        114   S     
97        117   S     
97        99    S     
97        115   S     
98        101   S     
99        101   S     
100       118   S     
101       119   S     
120       121   S     
120       90    S     
120       87    S     
122       123   S     
122       94    S     
122       95    S     
