9
mol to xyz file
O             7.8287        3.0359        5.0254    
O             9.1094        5.2619        5.0254    
O             6.5413        5.2580        5.0254    
B             6.5771        3.7948        5.0253    
B             9.0780        3.7985        5.0254    
B             7.8243        5.9625        5.0254    
X             5.9197        3.4338        5.0253    
X             9.7365        3.4395        5.0254    
X             7.8059        6.7123        5.0254    
0         3     S     
0         4     S     
1         5     S     
1         4     S     
2         5     S     
2         3     S     
3         6     S     
4         7     S     
5         8     S     
