12
mol to xyz file
B             1.2452        9.5470        0.0001    
H             2.1802        10.0870       0.0000    
B             -1.2456       9.5468        0.0001    
H             -2.1807       10.0866       0.0004    
B             0.0000        7.3899        0.0003    
H             0.0001        6.3101        0.0004    
N             -0.0003       10.2894       -0.0002   
N             -1.2658       8.0970        0.0001    
N             1.2657        8.0972        0.0004    
X             -0.0340       10.7214       0.6120    
X             -1.6228       7.8520        0.6125    
X             1.6229        7.8521        -0.6119   
0         1     S     
0         8     S     
0         6     S     
2         3     S     
2         7     S     
2         6     S     
4         8     S     
4         7     S     
4         5     S     
6         9     S     
7         10    S     
8         11    S     
