28
mol to xyz file
C             27.6218       3.8130        12.1733   
C             28.2884       3.8130        13.3326   
C             27.6218       3.8130        16.8107   
C             28.2884       3.8130        15.6514   
H             26.5398       3.8128        12.1290   
H             26.5398       3.8128        16.8552   
O             27.7957       3.8130        19.1874   
C             28.3174       3.8130        11.0429   
O             27.7957       3.8130        9.7966    
C             28.3174       3.8130        17.9411   
C             27.6218       3.8130        14.4920   
H             26.5343       3.8126        14.4917   
O             30.1723       3.8130        9.7966    
C             29.6506       3.8130        17.9411   
O             30.1723       3.8130        19.1874   
C             29.6506       3.8130        11.0429   
B             28.9840       3.8130        9.0430    
C             30.3462       3.8130        14.4920   
H             31.4332       3.8138        14.4917   
C             30.3462       3.8130        16.8107   
C             29.6796       3.8130        15.6514   
C             30.3462       3.8130        12.1733   
C             29.6796       3.8130        13.3326   
B             28.9840       3.8130        19.9410   
H             31.4286       3.8136        16.8549   
H             31.4280       3.8134        12.1291   
X             28.9528       3.8130        8.2937    
X             28.9528       3.8130        20.6903   
0         7     A     
0         4     S     
0         1     A     
1         10    A     
2         5     S     
2         3     A     
2         9     A     
3         10    A     
6         9     S     
7         8     S     
10        11    S     
12        16    S     
12        15    S     
13        14    S     
13        19    A     
14        23    S     
15        21    A     
17        18    S     
17        20    A     
17        22    A     
19        24    S     
19        20    A     
21        25    S     
21        22    A     
16        26    S     
23        27    S     
1         22    A     
3         20    A     
6         23    S     
7         15    A     
8         16    S     
9         13    A     
