30
mol to xyz file
C             -1.4586       2.0353        0.0140    
C             -0.6882       0.7015        0.0042    
C             0.8509        0.7056        -0.0018   
C             1.6114        2.0363        -0.0008   
C             0.8517        3.3746        0.0027    
C             -0.6893       3.3709        0.0118    
C             3.1379        2.0207        0.0001    
C             3.8971        0.6822        0.0006    
O             3.1496        -0.6367       -0.0101   
C             1.6330        -0.6218       -0.0067   
C             5.4376        0.6854        0.0140    
C             6.2072        2.0205        0.0230    
C             5.4376        3.3550        0.0137    
C             3.8985        3.3513        0.0041    
O             1.5995        4.6935        -0.0013   
C             3.1162        4.6785        0.0011    
C             -2.9985       2.0342        0.0278    
N             -3.7539       3.3414        0.0448    
C             7.7470        2.0197        0.0433    
N             8.5005        0.7112        0.0597    
O             3.8720        5.9855        0.0014    
O             0.8770        -1.9290       -0.0077   
H             -1.2566       -0.2867       0.0033    
H             -1.2613       4.3569        0.0172    
H             6.0092        -0.3009       0.0180    
H             6.0063        4.3429        0.0167    
H             -3.5679       1.0467        0.0267    
H             8.3176        3.0066        0.0478    
X             -4.5039       3.3409        0.0529    
X             9.2504        0.7105        0.0711    
0         5     A     
0         16    S     
0         1     A     
1         2     A     
1         22    S     
2         3     A     
2         9     S     
3         6     S     
3         4     A     
4         5     A     
4         14    S     
5         23    S     
6         7     A     
6         13    A     
7         8     S     
7         10    A     
8         9     S     
9         21    D     
10        11    A     
10        24    S     
11        12    A     
11        18    S     
12        13    A     
12        25    S     
13        15    S     
14        15    S     
15        20    D     
16        17    D     
16        26    S     
18        27    S     
18        19    D     
17        28    S     
19        29    S     
