51
mol to xyz file
N             -0.9128       0.5651        -0.0054   
C             -0.1943       -0.7611       0.0011    
N             1.3154        -0.7926       0.0062    
C             2.1045        0.4927        -0.0013   
N             1.3772        1.8160        -0.0025   
C             -0.1309       1.8567        -0.0051   
O             -0.8756       3.1752        -0.0108   
C             -0.1150       4.4867        -0.0065   
C             1.4279        4.5226        0.0030    
O             3.6182        0.4773        -0.0104   
C             4.3720        -0.8378       -0.0086   
C             3.6310        -2.1915       -0.0356   
C             -3.2832       -0.7431       0.0144    
C             -2.4806       -2.0613       0.0008    
O             -0.9646       -2.0648       0.0005    
C             -3.2300       -3.4080       -0.0126   
C             -4.7694       -3.4395       -0.0140   
C             -5.5663       -2.1237       -0.0039   
C             -4.8233       -0.7759       0.0125    
C             4.4286        -3.5091       -0.0174   
C             5.9667        -3.4792       0.0231    
C             6.7087        -2.1317       0.0393    
C             5.9125        -0.8139       0.0229    
C             2.1697        5.8727        0.0133    
C             1.3742        7.1902        0.0094    
C             -0.1638       7.1581        -0.0004   
C             -0.9065       5.8091        -0.0100   
C             1.3068        9.8009        0.0106    
N             2.0985        8.5150        0.0120    
C             8.2575        -4.7286       0.1179    
N             6.7497        -4.7695       0.0501    
N             -7.0755       -2.1587       -0.0117   
C             -7.7941       -3.4864       -0.0361   
H             2.0255        3.5554        0.0027    
H             2.4950        -2.2250       -0.0689   
H             -2.7445       0.2581        0.0262    
H             -2.6422       -4.3847       -0.0218   
H             -5.3196       -4.4380       -0.0234   
H             -5.4135       0.1994        0.0224    
H             3.8789        -4.5076       -0.0327   
H             7.8484        -2.1096       0.0650    
H             6.4648        0.1833        0.0361    
H             3.3094        5.8958        0.0216    
H             -0.7533       8.1339        -0.0027   
H             -2.0463       5.7887        -0.0198   
H             0.1679        9.7676        -0.0006   
H             8.7985        -3.7279       0.1452    
H             -7.1946       -4.4581       -0.0504   
X             1.6629        10.4609       0.0187    
X             -8.5438       -3.5080       -0.0385   
X             8.6495        -5.3678       0.1344    
0         5     A     
0         1     A     
1         2     A     
1         14    S     
2         3     A     
3         9     S     
3         4     A     
4         5     A     
5         6     S     
6         7     S     
7         8     A     
7         26    A     
8         33    S     
8         23    A     
9         10    S     
10        22    A     
10        11    A     
11        19    A     
11        34    S     
12        18    A     
12        35    S     
12        13    A     
13        15    A     
13        14    S     
15        16    A     
15        36    S     
16        17    A     
16        37    S     
17        31    S     
17        18    A     
18        38    S     
19        20    A     
19        39    S     
20        21    A     
20        30    S     
21        40    S     
21        22    A     
22        41    S     
23        42    S     
23        24    A     
24        25    A     
24        28    S     
25        43    S     
25        26    A     
26        44    S     
27        45    S     
27        28    D     
29        30    D     
29        46    S     
31        32    D     
32        47    S     
27        48    S     
32        49    S     
29        50    S     
