16
mol to xyz file
Si            -0.0006       8.6902        0.1473    
B             0.0000        10.7700       1.7994    
O             -0.7302       10.1059       0.7304    
B             1.7646        7.6757        1.8103    
O             1.5127        8.5122        0.7978    
O             -0.9399       7.4723        0.7551    
B             -1.7646       7.6758        1.7885    
O             0.7302        10.1059       2.8684    
O             0.9399        7.4723        2.8437    
O             -1.5127       8.5122        2.8010    
Si            0.0006        8.6902        3.4515    
H             0.0367        8.6638        -1.3920   
H             -0.0367       8.6638        4.9908    
X             0.0210        11.5191       1.8301    
X             2.4037        7.2834        1.8225    
X             -2.4174       7.3083        1.8253    
0         2     S     
0         4     S     
0         5     S     
0         11    S     
1         2     S     
1         7     S     
3         4     S     
3         8     S     
5         6     S     
6         9     S     
7         10    S     
8         10    S     
9         10    S     
10        12    S     
1         13    S     
3         14    S     
6         15    S     
