26
mol to xyz file
C             27.6218       3.8130        12.1733   
C             28.2884       3.8130        13.3326   
C             27.6218       3.8130        16.8107   
C             28.2884       3.8130        15.6514   
H             26.5398       3.8128        12.1290   
H             26.5398       3.8128        16.8552   
O             27.7957       3.8130        19.1874   
C             28.3174       3.8130        11.0429   
O             27.7957       3.8130        9.7966    
C             28.3174       3.8130        17.9411   
N             27.6218       3.8130        14.4920   
O             30.1723       3.8130        9.7966    
C             29.6506       3.8130        17.9411   
O             30.1723       3.8130        19.1874   
C             29.6506       3.8130        11.0429   
B             28.9840       3.8130        9.0430    
N             30.3462       3.8130        14.4920   
C             30.3462       3.8130        16.8107   
C             29.6796       3.8130        15.6514   
C             30.3462       3.8130        12.1733   
C             29.6796       3.8130        13.3326   
B             28.9840       3.8130        19.9410   
H             31.4286       3.8136        16.8549   
H             31.4280       3.8134        12.1291   
X             28.9528       3.8130        8.2937    
X             28.9528       3.8130        20.6903   
0         7     A     
0         4     S     
0         1     A     
1         10    A     
2         5     S     
2         3     A     
2         9     A     
3         10    A     
6         9     S     
7         8     S     
11        15    S     
11        14    S     
12        13    S     
12        17    A     
13        21    S     
14        19    A     
16        18    A     
16        20    A     
17        22    S     
17        18    A     
19        23    S     
19        20    A     
15        24    S     
21        25    S     
1         20    A     
3         18    A     
6         21    S     
7         14    A     
8         15    S     
9         12    A     
