77
mol to xyz file
C             22.0827       19.0309       1.7332    
N             20.6985       18.4523       1.5521    
N             21.6083       40.3151       1.6007    
C             22.3800       39.0181       1.6163    
C             23.8174       27.6169       1.7260    
C             22.4225       28.2313       1.6757    
C             22.6642       25.1732       1.6111    
N             19.9942       28.2683       1.5651    
C             18.1077       30.8356       1.6091    
C             17.2401       32.1057       1.6135    
C             25.4307       25.5886       1.6293    
C             20.1538       34.9720       1.6281    
C             25.8645       24.1302       1.3978    
C             27.3640       23.7677       1.3404    
C             28.4301       24.8711       1.4793    
C             27.9984       26.3269       1.7070    
C             26.5064       26.6796       1.7857    
C             15.0914       30.5444       1.6182    
C             13.5629       30.3691       1.6188    
C             12.6482       31.6059       1.6144    
C             13.2632       33.0196       1.6132    
C             14.7950       33.1952       1.6144    
C             20.5104       29.6888       1.6285    
C             19.6387       30.9514       1.6259    
C             17.9072       33.4984       1.6202    
C             21.1912       27.3703       1.5907    
C             21.2712       25.8486       1.5477    
C             23.9619       26.0748       1.6668    
N             22.0305       29.6906       1.6965    
C             19.4462       33.6063       1.6325    
C             20.3072       32.3333       1.6403    
C             22.6126       23.6267       1.6313    
C             15.7080       31.9558       1.6150    
C             21.2218       22.9869       1.4568    
C             21.0505       21.4614       1.4947    
C             22.2727       20.5581       1.7078    
C             23.6675       21.1868       1.8935    
C             23.8327       22.7217       1.8709    
C             19.3503       36.2861       1.6155    
C             20.0925       37.6378       1.6116    
C             21.6334       37.6711       1.6216    
C             22.4320       36.3552       1.6357    
C             21.6916       35.0077       1.6395    
C             11.1193       31.4238       1.6095    
N             10.2133       32.6304       1.6006    
N             30.9445       25.6485       1.4904    
C             29.9290       24.5350       1.3825    
H             24.7414       28.2823       1.7869    
H             17.6136       29.8082       1.5973    
H             25.0878       23.3192       1.3068    
H             27.6830       22.6844       1.1846    
H             28.7847       27.1450       1.8171    
H             26.1899       27.7614       1.9574    
H             15.7695       29.6279       1.6204    
H             13.1085       29.3235       1.6203    
H             12.5848       33.9357       1.6100    
H             15.2510       34.2400       1.6123    
H             17.2667       34.4415       1.6161    
H             20.3235       25.2183       1.4803    
H             21.4445       32.4157       1.6493    
H             20.3101       23.6539       1.3020    
H             20.0163       20.9998       1.3640    
H             24.5774       20.5181       2.0502    
H             24.8568       23.1775       1.9827    
H             18.2106       36.2592       1.6122    
H             19.5021       38.6129       1.6017    
H             23.5717       36.3793       1.6432    
H             22.2824       34.0325       1.6526    
H             22.9778       18.3422       1.8876    
H             30.2689       23.4590       1.2204    
H             23.5198       39.0357       1.6225    
H             10.6712       30.3755       1.6122    
H             18.9316       27.9526       1.5079    
X             20.5940       17.7097       1.5643    
X             21.9782       40.9675       1.5978    
X             9.4690        32.5386       1.5963    
X             31.6776       25.5034       1.4269    
0         68    S     
0         1     D     
0         35    S     
2         3     D     
3         70    S     
3         40    S     
4         5     A     
4         47    S     
4         27    A     
5         25    A     
5         28    A     
6         26    A     
6         27    A     
6         31    S     
7         25    A     
7         72    S     
7         22    A     
8         9     A     
8         23    A     
8         48    S     
9         32    S     
9         24    A     
10        27    S     
10        16    A     
10        12    A     
11        42    A     
11        38    A     
11        29    S     
12        49    S     
12        13    A     
13        50    S     
13        14    A     
14        46    S     
14        15    A     
15        16    A     
15        51    S     
16        52    S     
17        18    A     
17        32    A     
17        53    S     
18        19    A     
18        54    S     
19        43    S     
19        20    A     
20        21    A     
20        55    S     
21        56    S     
21        32    A     
22        28    A     
22        23    S     
23        30    A     
24        29    A     
24        57    S     
25        26    A     
26        58    S     
29        30    A     
30        59    S     
31        33    A     
31        37    A     
33        60    S     
33        34    A     
34        61    S     
34        35    A     
35        36    A     
36        37    A     
36        62    S     
37        63    S     
38        64    S     
38        39    A     
39        40    A     
39        65    S     
40        41    A     
41        66    S     
41        42    A     
42        67    S     
43        71    S     
43        44    D     
45        46    D     
46        69    S     
49        63    S     
1         73    S     
2         74    S     
44        75    S     
45        76    S     
