32
Properties=species:S:1:pos:R:3 mol=T to=T xyz=T file=T pbc="F F F"
C       11.44970000      12.20800000       5.26090000
C        7.88240000      14.23320000       5.26090000
C       11.44720000      10.66810000       5.26900000
C        7.88000000      12.69320000       5.26900000
C       14.11600000      12.20450000       5.21900000
C       10.54870000      14.22970000       5.21900000
C       12.78390000      12.97610000       5.23720000
C        9.21670000      15.00130000       5.23720000
C       12.77940000       9.89610000       5.26010000
C        9.21210000      11.92130000       5.26010000
C       14.11330000      10.66510000       5.24080000
C       10.54610000      12.69030000       5.24080000
H        9.21110000      10.78120000       5.27150000
H       11.53700000      14.79770000       5.19840000
X        7.22980000      12.31940000       5.27910000
X        9.21800000      15.75130000       5.23760000
H        6.89610000      14.80470000       5.27310000
H       10.45910000      10.09970000       5.28150000
H       15.10400000      12.77240000       5.18950000
H       12.78540000      14.11610000       5.23310000
H       12.77770000       8.75620000       5.26790000
C       14.95680000      10.19470000       5.26030000
C       14.95760000       8.65660000       5.33120000
C       17.62380000      10.19770000       5.27640000
Br      13.15928189       7.61761629       5.36381057
C       16.28950000      10.96490000       5.22630000
C       16.29210000       7.88970000       5.38980000
H       16.28820000      12.10350000       5.16780000
C       17.62550000       8.66030000       5.36230000
X       18.27300000      10.57310000       5.26130000
X       16.29280000       7.14110000       5.43470000
H       18.61330000       8.09280000       5.40540000
0       2     A
0       11    S
0       6     A
2       17    S
2       8     A
11      5     A
11      9     A
6       4     A
6       19    S
1       16    S
1       7     A
1       3     A
7       5     A
7       15    S
3       14    S
3       9     A
8       10    A
8       20    S
9       12    S
4       10    A
4       18    S
10      21    S
5       13    S
21      25    A
21      22    A
25      23    A
25      27    S
22      24    S
22      26    A
26      28    A
26      30    S
23      29    S
23      28    A
28      31    S
