81
mol to xyz file
C             5.6706        28.0502       5.2146    
C             4.4745        27.3432       5.2146    
C             7.0345        27.3407       5.3049    
H             4.4861        26.2033       5.2146    
C             -3.1300       30.2613       5.2146    
C             -1.9197       29.5789       5.2146    
C             -3.0369       31.7973       5.2704    
H             -0.9383       30.1590       5.2146    
C             -0.6446       21.5342       5.2146    
C             -0.6588       22.9236       5.2146    
C             -1.9952       20.8035       5.3297    
H             -1.6518       23.4835       5.2146    
C             1.9086        21.5342       5.2146    
C             1.9228        22.9236       5.2146    
H             2.9158        23.4835       5.2146    
C             -4.4065       28.0502       5.2146    
C             -3.2104       27.3432       5.2146    
H             -3.2221       26.2033       5.2146    
C             4.3940        30.2613       5.2146    
C             3.1837        29.5789       5.2146    
H             2.2023        30.1590       5.2146    
C             0.6320        25.2077       5.2146    
C             0.6320        20.7964       5.2146    
C             0.6320        23.6999       5.2146    
C             1.8510        27.3190       5.2146    
C             5.6713        29.5247       5.2146    
C             3.1568        28.0729       5.2146    
C             -0.5869       27.3190       5.2146    
C             -4.4073       29.5247       5.2146    
C             -1.8928       28.0729       5.2146    
C             -0.5735       25.9192       5.2146    
C             1.8376        25.9192       5.2146    
C             0.6320        28.0073       5.2146    
H             2.8302        25.3587       5.2146    
H             0.6211        29.1472       5.2146    
H             -1.5662       25.3587       5.2146    
O             0.6314        19.6564       5.2146    
O             6.6589        30.0942       5.2146    
O             -5.3943       30.0952       5.2146    
X             4.3936        31.0113       5.2146    
X             2.5583        21.1596       5.2146    
X             -5.0599       27.6819       5.2146    
C             7.6908        27.3103       3.9122    
C             6.8317        25.8995       5.8082    
C             7.9464        28.1019       6.2848    
C             -2.2540       32.3083       4.0466    
C             -2.3111       32.2167       6.5625    
C             -4.4522       32.4045       5.2581    
C             -1.7582       19.3534       5.7895    
C             -2.6959       20.7976       3.9590    
C             -2.8843       21.5282       6.3566    
H             8.6998        26.7840       3.9788    
H             7.0152        26.7470       3.1869    
H             7.8422        28.3773       3.5404    
H             7.8417        25.3751       5.8735    
H             6.3476        25.9221       6.8400    
H             6.1564        25.3352       5.0835    
H             8.9559        27.5761       6.3506    
H             7.4612        28.1236       7.3162    
H             8.0968        29.1687       5.9125    
H             -2.1833       33.4441       4.0889    
H             -2.7934       31.9961       3.0939    
H             -1.2048       31.8612       4.0529    
H             -1.2626       31.7693       6.5708    
H             -2.2406       33.3505       6.6067    
H             -2.8938       31.8363       7.4646    
H             -5.0350       32.0302       6.1634    
H             -4.9899       32.0959       4.3045    
H             -1.2417       19.3578       6.8057    
H             -1.0990       18.8175       5.0291    
H             -2.7588       18.8136       5.8733    
H             -2.0367       20.2627       3.1980    
H             -3.6947       20.2555       4.0458    
H             -2.8741       21.8715       3.6201    
H             -3.8842       20.9867       6.4409    
H             -2.3655       21.5308       7.3717    
H             -3.0606       22.6017       6.0162    
H             -4.3764       33.5431       5.2998    
H             -0.4153       19.2869       5.2151    
H             6.5842        30.9642       5.8998    
H             -5.3187       30.9653       5.8996    
0         1     A     
0         2     S     
0         25    A     
1         26    A     
1         3     S     
2         42    S     
2         44    S     
2         43    S     
4         28    A     
4         5     A     
4         6     S     
5         7     S     
5         29    A     
6         47    S     
6         45    S     
6         46    S     
8         22    A     
8         9     A     
8         10    S     
9         23    A     
9         11    S     
10        50    S     
10        48    S     
10        49    S     
12        22    A     
12        40    S     
12        13    A     
13        23    A     
13        14    S     
15        16    A     
15        41    S     
15        28    A     
16        29    A     
16        17    S     
18        25    A     
18        19    A     
18        39    S     
19        20    S     
19        26    A     
21        30    A     
21        31    A     
21        23    S     
22        36    S     
24        32    A     
24        26    S     
24        31    A     
25        37    S     
27        32    A     
27        29    S     
27        30    A     
28        38    S     
30        35    S     
31        33    S     
32        34    S     
36        78    S     
37        79    S     
38        80    S     
42        51    S     
42        53    S     
42        52    S     
43        55    S     
43        54    S     
43        56    S     
44        57    S     
44        59    S     
44        58    S     
45        60    S     
45        62    S     
45        61    S     
46        63    S     
46        64    S     
46        65    S     
47        77    S     
47        67    S     
47        66    S     
48        68    S     
48        70    S     
48        69    S     
49        72    S     
49        73    S     
49        71    S     
50        74    S     
50        76    S     
50        75    S     
69        78    S     
