78
Properties=species:S:1:pos:R:3 mol=T to=T xyz=T file=T pbc="F F F"
N       15.66910000       3.29060000      10.86770000
H       15.78410000       3.29060000       9.76370000
N       15.66910000       3.29060000       6.63400000
H       15.78410000       3.29060000       7.73800000
C       14.60200000       3.29060000      11.64160000
C       15.01100000       3.29060000      12.89710000
C       16.73620000       3.29060000      11.64160000
C       16.32720000       3.29060000      12.89710000
C       16.73620000       3.29060000       5.86020000
C       16.32720000       3.29060000       4.60460000
C       14.60200000       3.29060000       5.86020000
C       15.01100000       3.29060000       4.60460000
H       14.24880000       3.29060000      13.74490000
H       16.89720000       3.29060000      13.88440000
H       17.08940000       3.29060000       3.75690000
H       14.44100000       3.29060000       3.61730000
N       13.55280000       3.29060000       8.75090000
N       17.78540000       3.29060000       8.75090000
C       12.77800000       3.29060000       9.81930000
C       11.52630000       3.29060000       9.41090000
C       18.56020000       3.29060000       9.81930000
C       19.81190000       3.29060000       9.41090000
C       18.56020000       3.29060000       7.68250000
C       19.81190000       3.29060000       8.09090000
C       12.77800000       3.29060000       7.68250000
C       11.52630000       3.29060000       8.09090000
H       10.67820000       3.29060000      10.17260000
C       13.22880000       3.29060000      11.19130000
C       12.25960000       3.29060000      12.16090000
H       20.66000000       3.29060000      10.17260000
C       18.10940000       3.29060000      11.19130000
C       19.07860000       3.29060000      12.16090000
H       20.79920000       3.29060000       7.52090000
C       18.10940000       3.29060000       6.31040000
C       19.07860000       3.29060000       5.34080000
H       10.53900000       3.29060000       7.52090000
C       13.22880000       3.29060000       6.31040000
C       12.25960000       3.29060000       5.34080000
C       11.77520000       4.47830000      12.64490000
H       12.17820000       5.46520000      12.24090000
C       10.80580000       4.47830000      13.61480000
H       10.40250000       5.46550000      14.01750000
C       19.56300000       2.10300000      12.64490000
H       19.16000000       1.11600000      12.24090000
C       20.53240000       2.10300000      13.61480000
H       20.93570000       1.11570000      14.01750000
C       19.56300000       4.47830000       4.85690000
Cl      19.08368664       5.65208252       5.33728379
C       20.53240000       4.47830000       3.88700000
H       20.93570000       5.46550000       3.48420000
C       11.77520000       2.10300000       4.85690000
H       12.17820000       1.11600000       5.26080000
C       10.80580000       2.10300000       3.88700000
H       10.40250000       1.11570000       3.48420000
C       19.56300000       2.10300000       4.85690000
H       19.16000000       1.11600000       5.26080000
C       20.53240000       2.10300000       3.88700000
H       20.93570000       1.11570000       3.48420000
C       11.77520000       4.47830000       4.85690000
H       12.17820000       5.46520000       5.26080000
C       10.80580000       4.47830000       3.88700000
H       10.40250000       5.46550000       3.48420000
C       11.77520000       2.10300000      12.64490000
H       12.17820000       1.11600000      12.24090000
C       10.80580000       2.10300000      13.61480000
H       10.40250000       1.11570000      14.01750000
C       19.56300000       4.47830000      12.64490000
H       19.16000000       5.46520000      12.24090000
C       20.53240000       4.47830000      13.61480000
H       20.93570000       5.46550000      14.01750000
C       10.32330000       3.29060000      14.09870000
C       21.01490000       3.29060000      14.09870000
C       21.01490000       3.29060000       3.40300000
C       10.32330000       3.29060000       3.40300000
X        9.79270000       3.29060000      14.62880000
X       21.54550000       3.29060000      14.62880000
X       21.54550000       3.29060000       2.87290000
X        9.79270000       3.29060000       2.87290000
0       1     S
0       6     A
0       4     A
6       30    A
6       7     A
4       27    A
4       5     A
2       8     A
2       10    A
2       3     S
8       33    A
8       9     A
10      36    A
10      11    A
27      18    A
27      28    S
5       12    S
5       7     A
7       13    S
30      20    A
30      31    S
33      22    A
33      34    S
9       11    A
9       14    S
11      15    S
36      24    A
36      37    S
16      24    A
16      18    A
24      25    S
18      19    S
17      22    A
17      20    A
22      23    S
20      21    S
19      26    S
19      25    D
25      35    S
21      29    S
21      23    D
23      32    S
28      62    A
28      38    A
62      63    S
62      64    A
38      39    S
38      40    A
31      42    A
31      66    A
42      43    S
42      44    A
66      67    S
66      68    A
34      54    A
34      46    A
54      56    A
54      55    S
46      48    A
46      47    S
37      50    A
37      58    A
50      52    A
50      51    S
58      60    A
58      59    S
40      41    S
40      70    A
70      64    A
70      74    S
44      71    A
44      45    S
71      68    A
71      75    S
48      49    S
48      72    A
72      56    A
72      76    S
52      73    A
52      53    S
73      60    A
73      77    S
56      57    S
60      61    S
64      65    S
68      69    S
