78
Properties=species:S:1:pos:R:3 mol=T to=T xyz=T file=T pbc="F F F"
N       15.99060000       3.29030000      10.03150000
H       16.10560000       3.29030000       8.92750000
N       15.99060000       3.29030000       5.79770000
H       16.10560000       3.29030000       6.90180000
C       14.92350000       3.29030000      10.80530000
C       15.33250000       3.29030000      12.06090000
C       17.05770000       3.29030000      10.80530000
C       16.64870000       3.29030000      12.06090000
C       17.05770000       3.29030000       5.02390000
C       16.64870000       3.29030000       3.76840000
C       14.92350000       3.29030000       5.02390000
C       15.33250000       3.29030000       3.76840000
H       14.57030000       3.29030000      12.90860000
H       17.21870000       3.29030000      13.04810000
H       17.41090000       3.29030000       2.92060000
H       14.76250000       3.29030000       2.78110000
N       13.87430000       3.29030000       7.91460000
N       18.10690000       3.29030000       7.91460000
C       13.09950000       3.29030000       8.98300000
C       11.84780000       3.29030000       8.57460000
C       18.88170000       3.29030000       8.98300000
C       20.13340000       3.29030000       8.57460000
C       18.88170000       3.29030000       6.84620000
C       20.13340000       3.29030000       7.25460000
C       13.09950000       3.29030000       6.84620000
C       11.84780000       3.29030000       7.25460000
H       10.99970000       3.29030000       9.33640000
C       13.55030000       3.29030000      10.35510000
C       12.58110000       3.29030000      11.32470000
H       20.98150000       3.29030000       9.33640000
C       18.43080000       3.29030000      10.35510000
C       19.40000000       3.29030000      11.32470000
H       21.12060000       3.29030000       6.68460000
C       18.43080000       3.29030000       5.47420000
C       19.40000000       3.29030000       4.50460000
H       10.86050000       3.29030000       6.68460000
C       13.55030000       3.29030000       5.47420000
C       12.58110000       3.29030000       4.50460000
C       12.09660000       4.47800000      11.80860000
H       12.49960000       5.46490000      11.40470000
C       11.12730000       4.47800000      12.77850000
C       19.88450000       2.10270000      11.80860000
H       19.48150000       1.11570000      11.40470000
C       20.85380000       2.10270000      12.77850000
C       19.88450000       4.47800000       4.02060000
H       19.48150000       5.46490000       4.42460000
C       20.85380000       4.47800000       3.05070000
C       12.09660000       2.10270000       4.02060000
H       12.49960000       1.11570000       4.42460000
C       11.12730000       2.10270000       3.05070000
C       19.88450000       2.10270000       4.02060000
H       19.48150000       1.11570000       4.42460000
C       20.85380000       2.10270000       3.05070000
C       12.09660000       4.47800000       4.02060000
H       12.49960000       5.46490000       4.42460000
C       11.12730000       4.47800000       3.05070000
C       12.09660000       2.10270000      11.80860000
H       12.49960000       1.11570000      11.40470000
C       11.12730000       2.10270000      12.77850000
C       19.88450000       4.47800000      11.80860000
F       19.40518664       5.65178252      11.32821621
C       20.85380000       4.47800000      12.77850000
C       10.64480000       3.29030000      13.26250000
C       21.33640000       3.29030000      13.26250000
C       21.33640000       3.29030000       2.56680000
C       10.64480000       3.29030000       2.56680000
X       10.86340000       5.12780000       2.78500000
X       10.86340000       5.12780000      13.04420000
X       10.86340000       1.45290000      13.04420000
X       10.86340000       1.45290000       2.78500000
X       21.11780000       1.45290000      13.04420000
X       21.11780000       5.12780000      13.04420000
H        9.83980000       3.28870000      14.06970000
H       22.14130000       3.29200000      14.06970000
H        9.83980000       3.29200000       1.75950000
H       22.14130000       3.28870000       1.75950000
X       21.11920000       5.12750000       2.78580000
X       21.11920000       1.45320000       2.78580000
0       1     S
0       6     A
0       4     A
6       30    A
6       7     A
4       27    A
4       5     A
2       8     A
2       10    A
2       3     S
8       33    A
8       9     A
10      36    A
10      11    A
27      18    A
27      28    S
5       12    S
5       7     A
7       13    S
30      20    A
30      31    S
33      22    A
33      34    S
9       11    A
9       14    S
11      15    S
36      24    A
36      37    S
16      24    A
16      18    A
24      25    S
18      19    S
17      22    A
17      20    A
22      23    S
20      21    S
19      26    S
19      25    D
25      35    S
21      29    S
21      23    D
23      32    S
28      56    A
28      38    A
56      57    S
56      58    A
38      39    S
38      40    A
31      41    A
31      59    A
41      42    S
41      43    A
59      60    S
59      61    A
34      50    A
34      44    A
50      52    A
50      51    S
44      46    A
44      45    S
37      47    A
37      53    A
47      49    A
47      48    S
53      55    A
53      54    S
40      67    S
40      62    A
62      58    A
62      72    S
43      63    A
43      70    S
63      61    A
63      73    S
46      76    S
46      64    A
64      52    A
64      75    S
49      65    A
49      69    S
65      55    A
65      74    S
52      77    S
55      66    S
58      68    S
61      71    S
