118
mol to xyz file
N             15.9892       3.2906        10.5480   
H             16.1042       3.2906        9.4440    
N             15.9892       3.2906        6.3142    
H             16.1042       3.2906        7.4182    
C             14.9220       3.2906        11.3218   
C             15.3310       3.2906        12.5773   
C             17.0563       3.2906        11.3218   
C             16.6473       3.2906        12.5773   
C             17.0563       3.2906        5.5404    
C             16.6473       3.2906        4.2849    
C             14.9220       3.2906        5.5404    
C             15.3310       3.2906        4.2849    
H             14.5689       3.2906        13.4251   
H             17.2173       3.2906        13.5646   
H             17.4094       3.2906        3.4371    
H             14.7610       3.2906        3.2976    
N             13.8728       3.2906        8.4311    
N             18.1055       3.2906        8.4311    
C             13.0980       3.2906        9.4995    
C             11.8464       3.2906        9.0911    
C             18.8803       3.2906        9.4995    
C             20.1319       3.2906        9.0911    
C             18.8803       3.2906        7.3627    
C             20.1319       3.2906        7.7711    
C             13.0980       3.2906        7.3627    
C             11.8464       3.2906        7.7711    
H             10.9982       3.2906        9.8529    
C             13.5489       3.2906        10.8716   
C             12.5797       3.2906        11.8411   
H             20.9801       3.2906        9.8529    
C             18.4294       3.2906        10.8716   
C             19.3986       3.2906        11.8411   
H             21.1192       3.2906        7.2011    
C             18.4294       3.2906        5.9906    
C             19.3986       3.2906        5.0211    
H             10.8591       3.2906        7.2011    
C             13.5489       3.2906        5.9906    
C             12.5797       3.2906        5.0211    
C             12.0952       4.4783        12.3251   
H             12.4982       5.4652        11.9212   
C             11.1259       4.4783        13.2950   
H             10.7225       5.4655        13.6977   
C             19.8831       2.1030        12.3251   
C             20.8524       2.1030        13.2950   
C             19.8831       4.4783        4.5371    
H             19.4801       5.4652        4.9410    
C             20.8524       4.4783        3.5672    
H             21.2558       5.4655        3.1645    
C             12.0952       2.1030        4.5371    
H             12.4982       1.1160        4.9410    
C             11.1259       2.1030        3.5672    
H             10.7225       1.1157        3.1645    
C             19.8831       2.1030        4.5371    
H             19.4801       1.1160        4.9410    
C             20.8524       2.1030        3.5672    
H             21.2558       1.1157        3.1645    
C             12.0952       4.4783        4.5371    
H             12.4982       5.4652        4.9410    
C             11.1259       4.4783        3.5672    
H             10.7225       5.4655        3.1645    
C             12.0952       2.1030        12.3251   
H             12.4982       1.1160        11.9212   
C             11.1259       2.1030        13.2950   
H             10.7225       1.1157        13.6977   
C             19.8831       4.4783        12.3251   
H             19.4801       5.4652        11.9212   
C             20.8524       4.4783        13.2950   
H             21.2558       5.4655        13.6977   
C             10.6433       3.2906        13.7789   
C             21.3350       3.2906        13.7789   
C             21.3350       3.2906        3.0833    
C             10.6433       3.2906        3.0833    
C             9.8384        3.2890        14.5862   
C             22.1399       3.2890        2.2760    
C             9.8384        3.2923        2.2760    
C             8.6866        2.2717        2.3350    
C             7.5992        2.2739        1.2445    
C             7.6637        3.2967        0.0950    
C             8.8154        4.3172        0.0360    
C             9.9028        4.3150        1.1265    
C             23.2917       4.3095        2.3350    
C             24.3791       4.3073        1.2445    
C             24.3146       3.2846        0.0950    
C             23.1629       2.2640        0.0360    
C             22.0755       2.2662        1.1265    
C             8.6866        4.3095        14.5272   
C             7.5992        4.3073        15.6177   
C             7.6637        3.2846        16.7672   
C             8.8154        2.2640        16.8262   
C             9.9028        2.2662        15.7357   
H             19.4801       1.1160        11.9212   
H             21.2558       1.1157        13.6977   
C             22.1399       3.2923        14.5862   
C             23.2917       2.2717        14.5272   
C             24.3791       2.2739        15.6177   
C             24.3146       3.2967        16.7672   
C             23.1629       4.3172        16.8262   
C             22.0755       4.3150        15.7357   
H             8.6389        1.5146        3.1860    
H             6.7466        1.5184        1.2882    
H             8.8631        5.0743        -0.8150   
H             10.7554       5.0705        1.0828    
H             23.3394       5.0666        3.1860    
H             25.2317       5.0628        1.2882    
H             23.1152       1.5069        -0.8150   
H             21.2229       1.5107        1.0828    
H             8.6389        5.0666        13.6762   
H             6.7466        5.0628        15.5740   
H             8.8631        1.5069        17.6772   
H             10.7554       1.5107        15.7794   
H             23.3394       1.5146        13.6762   
H             25.2317       1.5184        15.5740   
H             23.1152       5.0743        17.6772   
H             21.2229       5.0705        15.7794   
X             7.1341        3.2835        17.2983   
X             7.1341        3.2978        -0.4361   
X             24.8442       3.2835        -0.4361   
X             24.8442       3.2978        17.2983   
0         1     S     
0         6     A     
0         4     A     
2         8     A     
2         10    A     
2         3     S     
4         27    A     
4         5     A     
5         12    S     
5         7     A     
6         30    A     
6         7     A     
7         13    S     
8         33    A     
8         9     A     
9         11    A     
9         14    S     
10        36    A     
10        11    A     
11        15    S     
16        24    A     
16        18    A     
17        22    A     
17        20    A     
18        19    S     
18        27    A     
19        26    S     
19        25    D     
20        21    S     
20        30    A     
21        29    S     
21        23    D     
22        23    S     
22        33    A     
23        32    S     
24        25    S     
24        36    A     
25        35    S     
27        28    S     
28        60    A     
28        38    A     
30        31    S     
31        42    A     
31        64    A     
33        34    S     
34        52    A     
34        44    A     
36        37    S     
37        48    A     
37        56    A     
38        39    S     
38        40    A     
40        41    S     
40        68    A     
42        90    S     
42        43    A     
43        69    A     
43        91    S     
44        46    A     
44        45    S     
46        47    S     
46        70    A     
48        50    A     
48        49    S     
50        71    A     
50        51    S     
52        54    A     
52        53    S     
54        70    A     
54        55    S     
56        58    A     
56        57    S     
58        59    S     
58        71    A     
60        61    S     
60        62    A     
62        68    A     
62        63    S     
64        65    S     
64        66    A     
66        67    S     
66        69    A     
68        72    S     
69        92    S     
70        73    S     
71        74    S     
72        89    A     
72        85    A     
73        80    A     
73        84    A     
74        75    A     
74        79    A     
75        98    S     
75        76    A     
76        77    A     
76        99    S     
77        78    A     
77        115   S     
78        79    A     
78        100   S     
79        101   S     
80        102   S     
80        81    A     
81        103   S     
81        82    A     
82        83    A     
82        116   S     
83        84    A     
83        104   S     
84        105   S     
85        86    A     
85        106   S     
86        107   S     
86        87    A     
87        88    A     
87        114   S     
88        108   S     
88        89    A     
89        109   S     
92        93    A     
92        97    A     
93        94    A     
93        110   S     
94        111   S     
94        95    A     
95        96    A     
95        117   S     
96        112   S     
96        97    A     
97        113   S     
