120
Properties=species:S:1:pos:R:3 mol=T to=T xyz=T file=T pbc="F F F"
N       15.98920000       3.29060000      10.54800000
H       16.10420000       3.29060000       9.44400000
N       15.98920000       3.29060000       6.31420000
H       16.10420000       3.29060000       7.41820000
C       14.92200000       3.29060000      11.32180000
C       15.33100000       3.29060000      12.57730000
C       17.05630000       3.29060000      11.32180000
C       16.64730000       3.29060000      12.57730000
C       17.05630000       3.29060000       5.54040000
C       16.64730000       3.29060000       4.28490000
C       14.92200000       3.29060000       5.54040000
C       15.33100000       3.29060000       4.28490000
H       14.56890000       3.29060000      13.42510000
H       17.21730000       3.29060000      13.56460000
H       17.40940000       3.29060000       3.43710000
H       14.76100000       3.29060000       3.29760000
N       13.87280000       3.29060000       8.43110000
N       18.10550000       3.29060000       8.43110000
C       13.09800000       3.29060000       9.49950000
C       11.84640000       3.29060000       9.09110000
C       18.88030000       3.29060000       9.49950000
C       20.13190000       3.29060000       9.09110000
C       18.88030000       3.29060000       7.36270000
C       20.13190000       3.29060000       7.77110000
C       13.09800000       3.29060000       7.36270000
C       11.84640000       3.29060000       7.77110000
H       10.99820000       3.29060000       9.85290000
C       13.54890000       3.29060000      10.87160000
C       12.57970000       3.29060000      11.84110000
H       20.98010000       3.29060000       9.85290000
C       18.42940000       3.29060000      10.87160000
C       19.39860000       3.29060000      11.84110000
H       21.11920000       3.29060000       7.20110000
C       18.42940000       3.29060000       5.99060000
C       19.39860000       3.29060000       5.02110000
H       10.85910000       3.29060000       7.20110000
C       13.54890000       3.29060000       5.99060000
C       12.57970000       3.29060000       5.02110000
C       12.09520000       4.47830000      12.32510000
N       12.60412173       5.72458997      11.81504172
C       11.12590000       4.47830000      13.29500000
H       10.72250000       5.46550000      13.69770000
C       19.88310000       2.10300000      12.32510000
C       20.85240000       2.10300000      13.29500000
C       19.88310000       4.47830000       4.53710000
H       19.48010000       5.46520000       4.94100000
C       20.85240000       4.47830000       3.56720000
H       21.25580000       5.46550000       3.16450000
C       12.09520000       2.10300000       4.53710000
H       12.49820000       1.11600000       4.94100000
C       11.12590000       2.10300000       3.56720000
H       10.72250000       1.11570000       3.16450000
C       19.88310000       2.10300000       4.53710000
H       19.48010000       1.11600000       4.94100000
C       20.85240000       2.10300000       3.56720000
H       21.25580000       1.11570000       3.16450000
C       12.09520000       4.47830000       4.53710000
H       12.49820000       5.46520000       4.94100000
C       11.12590000       4.47830000       3.56720000
H       10.72250000       5.46550000       3.16450000
C       12.09520000       2.10300000      12.32510000
H       12.49820000       1.11600000      11.92120000
C       11.12590000       2.10300000      13.29500000
H       10.72250000       1.11570000      13.69770000
C       19.88310000       4.47830000      12.32510000
H       19.48010000       5.46520000      11.92120000
C       20.85240000       4.47830000      13.29500000
H       21.25580000       5.46550000      13.69770000
C       10.64330000       3.29060000      13.77890000
C       21.33500000       3.29060000      13.77890000
C       21.33500000       3.29060000       3.08330000
C       10.64330000       3.29060000       3.08330000
C        9.83840000       3.28900000      14.58620000
C       22.13990000       3.28900000       2.27600000
C        9.83840000       3.29230000       2.27600000
C        8.68660000       2.27170000       2.33500000
C        7.59920000       2.27390000       1.24450000
C        7.66370000       3.29670000       0.09500000
C        8.81540000       4.31720000       0.03600000
C        9.90280000       4.31500000       1.12650000
C       23.29170000       4.30950000       2.33500000
C       24.37910000       4.30730000       1.24450000
C       24.31460000       3.28460000       0.09500000
C       23.16290000       2.26400000       0.03600000
C       22.07550000       2.26620000       1.12650000
C        8.68660000       4.30950000      14.52720000
C        7.59920000       4.30730000      15.61770000
C        7.66370000       3.28460000      16.76720000
C        8.81540000       2.26400000      16.82620000
C        9.90280000       2.26620000      15.73570000
H       19.48010000       1.11600000      11.92120000
H       21.25580000       1.11570000      13.69770000
C       22.13990000       3.29230000      14.58620000
C       23.29170000       2.27170000      14.52720000
C       24.37910000       2.27390000      15.61770000
C       24.31460000       3.29670000      16.76720000
C       23.16290000       4.31720000      16.82620000
C       22.07550000       4.31500000      15.73570000
H        8.63890000       1.51460000       3.18600000
H        6.74660000       1.51840000       1.28820000
H        8.86310000       5.07430000      -0.81500000
H       10.75540000       5.07050000       1.08280000
H       23.33940000       5.06660000       3.18600000
H       25.23170000       5.06280000       1.28820000
H       23.11520000       1.50690000      -0.81500000
H       21.22290000       1.51070000       1.08280000
H        8.63890000       5.06660000      13.67620000
H        6.74660000       5.06280000      15.57400000
H        8.86310000       1.50690000      17.67720000
H       10.75540000       1.51070000      15.77940000
H       23.33940000       1.51460000      13.67620000
H       25.23170000       1.51840000      15.57400000
H       23.11520000       5.07430000      17.67720000
H       21.22290000       5.07050000      15.77940000
X        7.13410000       3.28350000      17.29830000
X        7.13410000       3.29780000      -0.43610000
X       24.84420000       3.28350000      -0.43610000
X       24.84420000       3.29780000      17.29830000
O       12.46983227       6.82435963      12.49817702
O       13.20697845       5.77203147      10.66243740
0       1     S
0       6     A
0       4     A
6       30    A
6       7     A
4       27    A
4       5     A
2       8     A
2       10    A
2       3     S
8       33    A
8       9     A
10      36    A
10      11    A
27      18    A
27      28    S
5       12    S
5       7     A
7       13    S
30      20    A
30      31    S
33      22    A
33      34    S
9       11    A
9       14    S
11      15    S
36      24    A
36      37    S
16      24    A
16      18    A
24      25    S
18      19    S
17      22    A
17      20    A
22      23    S
20      21    S
19      26    S
19      25    D
25      35    S
21      29    S
21      23    D
23      32    S
28      60    A
28      38    A
60      61    S
60      62    A
38      39    S
38      40    A
31      42    A
31      64    A
42      90    S
42      43    A
64      65    S
64      66    A
34      52    A
34      44    A
52      54    A
52      53    S
44      46    A
44      45    S
37      48    A
37      56    A
48      50    A
48      49    S
56      58    A
56      57    S
39      118   D
39      119   S
40      41    S
40      68    A
68      62    A
68      72    S
43      69    A
43      91    S
69      66    A
69      92    S
46      47    S
46      70    A
70      54    A
70      73    S
50      71    A
50      51    S
71      58    A
71      74    S
54      55    S
58      59    S
62      63    S
66      67    S
72      89    A
72      85    A
92      93    A
92      97    A
73      80    A
73      84    A
74      75    A
74      79    A
89      88    A
89      109   S
85      86    A
85      106   S
80      102   S
80      81    A
84      83    A
84      105   S
75      98    S
75      76    A
79      78    A
79      101   S
76      77    A
76      99    S
77      78    A
77      115   S
78      100   S
81      103   S
81      82    A
82      83    A
82      116   S
83      104   S
86      107   S
86      87    A
87      88    A
87      114   S
88      108   S
93      94    A
93      110   S
97      96    A
97      113   S
94      111   S
94      95    A
95      96    A
95      117   S
96      112   S
