9
Properties=species:S:1:pos:R:3 mol=T to=T xyz=T file=T pbc="F F F"
N       28.15430000      47.03880000       8.05300000
H       27.66230000      48.04070000       8.61710000
N       28.94350000      47.15680000       6.90350000
C       29.56931319      45.95843431       6.25297576
X       28.15060000      46.37480000       8.40160000
X       28.90650000      47.80600000       6.52990000
F       30.00212623      45.08008864       7.22870067
F       30.64901137      46.32206540       5.46822634
F       28.63188994      45.32611592       5.45758563
0       1     S
0       2     S
0       4     S
2       3     S
2       5     S
3       6     S
3       7     S
3       8     S
