7
Properties=species:S:1:pos:R:3 mol=T to=T xyz=T file=T pbc="F F F"
N       28.15430000      47.03880000       8.05300000
H       27.66230000      48.04070000       8.61710000
N       28.94350000      47.15680000       6.90350000
O       29.52603955      46.04129874       6.29795813
X       28.15060000      46.37480000       8.40160000
X       28.90650000      47.80600000       6.52990000
H       28.95655131      45.20511486       6.35986350
0       1     S
0       2     S
0       4     S
2       3     S
2       5     S
3       6     S
