8
mol to xyz file
N             28.1232       48.2646       7.3789    
O             27.6312       49.2665       7.9430    
N             28.9124       48.3825       6.2294    
O             29.4342       47.3836       5.6871    
H             28.4420       49.8633       8.4103    
H             30.5324       47.4076       5.8462    
X             28.1195       47.6005       7.7275    
X             28.8754       49.0318       5.8557    
0         1     S     
0         2     S     
2         3     S     
1         4     S     
3         5     S     
0         6     S     
2         7     S     
