9
Properties=species:S:1:pos:R:3 mol=T to=T xyz=T file=T pbc="F F F"
N       28.12320000      48.26460000       7.37890000
O       27.63120000      49.26650000       7.94300000
N       28.91240000      48.38250000       6.22940000
O       29.43420000      47.38360000       5.68710000
S       28.95332523      50.23966766       8.70499941
H       30.53240000      47.40760000       5.84620000
X       28.11950000      47.60050000       7.72750000
X       28.87540000      49.03180000       5.85570000
H       29.58970186      51.02052232       7.71839314
0       1     S
0       2     S
0       6     S
1       4     S
2       3     S
2       7     S
3       5     S
4       8     S
