8
Properties=species:S:1:pos:R:3 mol=T to=T xyz=T file=T pbc="F F F"
C        7.60360000      13.57690000       0.00000000
C        8.80370000      14.54190000       0.00000000
X        8.79190000      15.29180000       0.00000000
X        7.62080000      12.82710000       0.00000000
N        6.26135869      14.09730422       0.00000000
H        9.86660000      14.12970000       0.00000000
H        5.47685890      13.60928372      -0.61517522
H        6.01097312      14.98657992       0.61530389
0       4     S
0       1     D
0       3     S
4       6     S
4       7     S
1       2     S
1       5     S
