9
Properties=species:S:1:pos:R:3 mol=T to=T xyz=T file=T pbc="F F F"
C        7.60360000      13.57690000       0.00000000
C        8.80370000      14.54190000       0.00000000
X        8.79190000      15.29180000       0.00000000
X        7.62080000      12.82710000       0.00000000
H        6.54070000      13.98900000       0.00000000
C       10.21923337      13.99294633       0.00000000
O       10.46397227      12.80841437       0.54674213
O       11.13787332      14.66183054      -0.47475912
H       11.46933804      12.69763597       0.62286855
0       4     S
0       1     D
0       3     S
1       2     S
1       5     S
5       6     S
5       7     D
6       8     S
