14
Properties=species:S:1:pos:R:3 mol=T to=T xyz=T file=T pbc="F F F"
N        8.08820000      13.64900000      -0.40000000
C        8.79800000      12.43800000       0.17750000
N       10.30520000      12.45700000       0.42580000
C       11.13090000      13.69220000       0.11530000
C       10.39640000      14.90510000      -0.45660000
C        8.90920000      14.87040000      -0.70710000
N        8.46230000      16.20250000      -1.24680000
C        9.73170000      17.04330000      -1.30670000
N       10.94220000      16.25830000      -0.82540000
X        8.40080000      11.82470000       0.34680000
X        9.75600000      17.75800000      -1.53280000
S       12.91422428      13.68981842       0.42426982
H       12.02550000      16.47040000      -0.70860000
H       13.59695937      14.01990951      -0.76443275
0       5     A
0       1     A
5       4     A
5       6     A
1       9     S
1       2     A
2       3     A
3       11    S
3       4     A
11      13    S
4       8     A
8       7     A
8       12    S
6       7     A
7       10    S
