13
Properties=species:S:1:pos:R:3 mol=T to=T xyz=T file=T pbc="F F F"
N        8.81200000      13.63560000      -0.30460000
C        9.52180000      12.42450000       0.27280000
N       11.02890000      12.44360000       0.52120000
C       11.85470000      13.67880000       0.21060000
C       11.12010000      14.89170000      -0.36130000
C        9.63300000      14.85700000      -0.61170000
N        9.18600000      16.18900000      -1.15140000
C       10.45550000      17.02980000      -1.21140000
N       11.66600000      16.24490000      -0.73010000
X        9.12460000      11.81130000       0.44210000
X       10.47980000      17.74450000      -1.43750000
X       12.59810000      13.66500000       0.30850000
Br      13.69311800      16.64179073      -0.51153877
0       5     A
0       1     A
5       4     A
5       6     A
1       9     S
1       2     A
2       3     A
3       11    S
3       4     A
4       8     A
8       7     A
8       12    S
6       7     A
7       10    S
