24
Properties=species:S:1:pos:R:3 mol=T to=T xyz=T file=T pbc="F F F"
C        8.79440000      13.68570000       5.02540000
X        8.14320000      14.05760000       5.02540000
C        8.81320000      12.27980000       5.02540000
C       11.23080000      13.68920000       5.02540000
H        7.88430000      11.71960000       5.02540000
C       10.01490000      14.38370000       5.02540000
C       10.02920000      11.58530000       5.02540000
H       10.02550000      15.46840000       5.02540000
C       11.24970000      12.28330000       5.02540000
X       15.69330000       9.74530000       5.02540000
C       12.58680000      11.51960000       5.02540000
C       12.60560000      10.11380000       5.02540000
C       15.02320000      11.52310000       5.02540000
H       11.67670000       9.55350000       5.02540000
C       13.80720000      12.21760000       5.02540000
C       13.82160000       9.41930000       5.02540000
H       13.81790000      13.30240000       5.02540000
C       15.04200000      10.11730000       5.02540000
H       13.81090000       8.33460000       5.02540000
H       10.01860000      10.50060000       5.02540000
N       16.25590572      12.26665153       5.02540000
H       12.15980000      14.24940000       5.02540000
H       16.94694325      12.19560627       4.15968400
H       16.51524292      12.91109139       5.89116242
0       2     A
0       1     S
0       5     A
2       4     S
2       6     A
5       3     A
5       7     S
6       8     A
6       19    S
3       8     A
3       21    S
8       10    S
9       17    S
17      12    A
17      15    A
10      14    A
10      11    A
14      12    A
14      16    S
11      13    S
11      15    A
15      18    S
12      20    S
20      22    S
20      23    S
