10
Properties=species:S:1:pos:R:3 mol=T to=T xyz=T file=T pbc="F F F"
C       -0.34830000       0.25980000       0.00050000
C        0.77780000      -0.78520000      -0.00010000
C        2.10170000      -0.02220000       0.00040000
C        1.76200000       1.47600000       0.00110000
O        0.25300000       1.65550000       0.00140000
S        0.57394073      -2.58357538      -0.00105261
H        3.14610000      -0.47910000       0.00030000
X       -1.08210000       0.10470000       0.00050000
X        2.26420000       2.03310000       0.00120000
H        0.44424670      -3.04052931      -1.32863451
0       7     S
0       4     A
0       1     A
4       3     A
1       5     S
1       2     A
5       9     S
2       6     S
2       3     A
3       8     S
