9
mol to xyz file
C             -0.4403       0.1358        0.0002    
C             0.7790        -0.8145       -0.0001   
C             2.1295        -0.0352       -0.0003   
C             1.9187        1.4953        0.0003    
S             0.1535        1.8322        0.0005    
H             0.6218        -1.9436       -0.0002   
H             3.1853        -0.4651       -0.0007   
X             -1.1578       -0.0829       0.0002    
X             2.4675        2.0064        0.0003    
0         7     S     
0         4     A     
0         1     A     
1         2     A     
1         5     S     
2         6     S     
2         3     A     
3         4     A     
3         8     S     
