19
Properties=species:S:1:pos:R:3 mol=T to=T xyz=T file=T pbc="F F F"
C       10.23610000      17.62160000       1.77790000
X       12.51950000      15.53650000       2.90150000
C       11.88550000      15.84120000       2.64120000
S       10.35450000      14.95930000       2.31790000
C        9.36590000      16.34320000       1.74100000
C       11.67800000      17.33360000       2.29280000
X        4.74410000      17.07660000       0.12420000
C        5.37810000      16.77200000       0.38450000
S        6.90930000      17.65370000       0.70740000
C        7.89760000      16.26970000       1.28470000
C        7.02710000      14.99170000       1.24830000
C        5.58510000      15.27970000       0.73370000
H       12.43450000      18.18260000       2.37390000
C        4.44446546      14.29341402       0.55684505
H        9.79590000      18.62040000       1.44900000
H        7.46690000      13.99290000       1.57750000
O        3.39062712      14.35736024       1.36137950
O        4.51661823      13.41873601      -0.30711907
H        2.83515452      13.52036335       1.22097365
0       14    S
0       4     A
0       5     A
4       3     A
4       9     S
5       2     A
5       12    S
1       2     S
2       3     A
9       8     A
9       10    A
6       7     S
7       11    A
7       8     A
11      10    A
11      13    S
10      15    S
13      16    S
13      17    D
16      18    S
