12
mol to xyz file
C             -3.4251       1.2142        0.0054    
C             -2.4946       0.0462        -0.4363   
C             -1.0841       0.5859        -0.2734   
C             -1.1627       1.9735        0.2357    
O             -2.5876       2.4332        0.4380    
C             0.2481        2.4986        0.4387    
C             1.1788        1.3269        0.0074    
O             0.3411        0.1118        -0.4365   
X             -4.1747       1.1898        0.0046    
H             -2.8053       -0.9912       -0.8017   
H             0.5593        3.5288        0.8256    
X             1.9284        1.3508        0.0097    
0         8     S     
0         4     A     
0         1     A     
1         2     A     
1         9     S     
2         7     A     
2         3     A     
3         4     A     
3         5     A     
5         10    S     
5         6     A     
6         11    S     
6         7     A     
