14
Properties=species:S:1:pos:R:3 mol=T to=T xyz=T file=T pbc="F F F"
C       -3.42510000       1.21420000       0.00540000
C       -2.49460000       0.04620000      -0.43630000
C       -1.08410000       0.58590000      -0.27340000
C       -1.16270000       1.97350000       0.23570000
O       -2.58760000       2.43320000       0.43800000
C        0.24810000       2.49860000       0.43870000
C        1.17880000       1.32690000       0.00740000
O        0.34110000       0.11180000      -0.43650000
X       -4.17470000       1.18980000       0.00460000
N       -2.88594949      -1.26048155      -0.89654816
H        0.55930000       3.52880000       0.82560000
X        1.92840000       1.35080000       0.00970000
O       -2.08684176      -2.27855083      -0.75811914
O       -4.04534627      -1.44525526      -1.45854587
0       8     S
0       4     A
0       1     A
4       3     A
1       2     A
1       9     S
2       7     A
2       3     A
9       12    D
9       13    S
7       6     A
3       5     A
5       10    S
5       6     A
6       11    S
