15
Properties=species:S:1:pos:R:3 mol=T to=T xyz=T file=T pbc="F F F"
C       -1.34290000       1.42590000      -0.00740000
C       -0.55610000       0.09230000      -0.00390000
C        1.00060000       0.09230000      -0.00370000
C        1.78770000       1.42570000      -0.00690000
C        0.97850000       2.72450000      -0.00900000
C       -0.53360000       2.72470000      -0.00910000
C       -1.01110000       4.18450000       0.00650000
O        0.22260000       5.06790000       0.01950000
C        1.45630000       4.18420000       0.00690000
X       -1.72350000       4.41900000       0.00710000
X        2.16880000       4.41850000       0.00770000
H       -2.48220000       1.46420000      -0.00860000
H       -1.11670000      -0.90030000      -0.00150000
H        1.57060000      -0.89500000      -0.00110000
F        3.14346675       1.41261804      -0.00773249
0       11    S
0       5     A
0       1     A
5       4     A
5       6     A
1       2     A
1       12    S
2       13    S
2       3     A
3       14    S
3       4     A
4       8     A
8       7     A
8       10    S
6       9     S
6       7     A
