18
Properties=species:S:1:pos:R:3 mol=T to=T xyz=T file=T pbc="F F F"
C       -1.35770000       1.39620000      -0.01080000
C       -0.57010000       0.06580000      -0.01550000
C        0.98150000       0.06580000      -0.01510000
C        1.76990000       1.39590000      -0.01100000
C        0.98440000       2.71310000      -0.00510000
C       -0.57180000       2.71320000      -0.00490000
C       -1.18140000       4.13890000       0.00680000
S        0.20640000       5.26680000       0.01900000
C        1.59380000       4.13870000       0.00780000
X       -1.90980000       4.31760000       0.00700000
X        2.32220000       4.31750000       0.00740000
H       -2.49760000       1.41260000      -0.01170000
C       -1.30594773      -1.24164256      -0.02063290
H        1.55140000      -0.92150000      -0.01780000
H        2.90980000       1.38290000      -0.01240000
F       -2.63706639      -1.01805711      -0.31894481
F       -1.22280683      -1.86723246       1.21043665
F       -0.75951343      -2.07202565      -0.98141792
0       11    S
0       5     A
0       1     A
5       4     A
5       6     A
1       2     A
1       12    S
2       13    S
2       3     A
12      15    S
12      16    S
12      17    S
3       14    S
3       4     A
4       8     A
8       7     A
8       10    S
6       9     S
6       7     A
