18
Properties=species:S:1:pos:R:3 mol=T to=T xyz=T file=T pbc="F F F"
C       -1.35770000       1.39620000      -0.01080000
C       -0.57010000       0.06580000      -0.01550000
C        0.98150000       0.06580000      -0.01510000
C        1.76990000       1.39590000      -0.01100000
C        0.98440000       2.71310000      -0.00510000
C       -0.57180000       2.71320000      -0.00490000
C       -1.18140000       4.13890000       0.00680000
S        0.20640000       5.26680000       0.01900000
C        1.59380000       4.13870000       0.00780000
X       -1.90980000       4.31760000       0.00700000
X        2.32220000       4.31750000       0.00740000
H       -2.49760000       1.41260000      -0.01170000
H       -1.12920000      -0.92760000      -0.01940000
H        1.55140000      -0.92150000      -0.01780000
C        3.28805072       1.37858624      -0.01286456
O        3.93353650       0.35310259       0.52905006
O        3.91299377       2.32917433      -0.48459553
H        4.91393295       0.60186181       0.60500435
0       11    S
0       5     A
0       1     A
5       4     A
5       6     A
1       2     A
1       12    S
2       13    S
2       3     A
3       14    S
3       4     A
14      15    S
14      16    D
4       8     A
8       7     A
8       10    S
6       9     S
6       7     A
15      17    S
