16
Properties=species:S:1:pos:R:3 mol=T to=T xyz=T file=T pbc="F F F"
C       -1.35420000       1.17030000       0.00000000
C       -0.58420000      -0.16340000       0.00000000
C        0.95580000      -0.16340000       0.00000000
C        1.72580000       1.17030000       0.00000000
C        0.95580000       2.50400000       0.00000000
C       -0.58420000       2.50400000       0.00000000
N       -1.00570000       3.97200000       0.00080000
C        0.18590000       4.78710000       0.00020000
C        1.37740000       3.97180000       0.00150000
H       -1.15420000      -1.15060000       0.00000000
Cl       1.63375057      -1.33756282      -0.00000000
H       -2.08280000       4.24010000       0.00180000
H        0.09890000       5.92380000      -0.00120000
H        2.48360000       4.24710000       0.00340000
X        2.47580000       1.17030000       0.00000000
X       -2.10420000       1.17030000       0.00000000
0       15    S
0       5     A
0       1     A
5       4     A
5       6     A
1       2     A
1       9     S
2       10    S
2       3     A
3       14    S
3       4     A
4       8     A
8       7     A
8       13    S
6       11    S
6       7     A
7       12    S
