16
Properties=species:S:1:pos:R:3 mol=T to=T xyz=T file=T pbc="F F F"
C       -1.37860000       1.19270000      -0.08070000
C       -0.59180000      -0.12800000      -0.26510000
C        0.96370000      -0.12910000      -0.26490000
C        1.74780000       1.19170000      -0.08060000
C        0.93750000       2.47800000       0.10060000
C       -0.57710000       2.48630000       0.10290000
O       -1.09390000       3.89880000       0.30770000
C        0.14500000       4.77930000       0.43590000
C        1.41330000       3.91230000       0.31000000
X       -2.12860000       1.19840000      -0.08080000
H       -1.15780000      -1.10800000      -0.40190000
O        1.65696188      -1.32978205      -0.43261082
X        2.49770000       1.20120000      -0.07990000
H        2.49380000       4.27170000       0.36250000
H        0.13460000       5.90730000       0.60090000
H        1.05051354      -2.13762711      -0.51603369
0       9     S
0       1     A
0       5     A
1       2     A
1       10    S
5       4     A
5       6     A
2       11    S
2       3     A
11      15    S
3       12    S
3       4     A
4       8     A
8       7     A
8       13    S
6       7     A
7       14    S
