15
mol to xyz file
C             -1.3864       1.1162        -0.0902   
C             -0.5859       -0.1951       -0.2637   
C             0.9670        -0.1775       -0.2574   
C             1.7400        1.1507        -0.0792   
C             0.9356        2.4487        0.0674    
C             -0.5945       2.4230        0.0620    
S             -1.2077       4.1010        0.2451    
C             0.3814        4.9417        0.3420    
C             1.5106        3.8859        0.2303    
X             -2.1362       1.1049        -0.0784   
H             -1.1401       -1.1831       -0.3925   
H             1.5429        -1.1535       -0.3818   
X             2.4898        1.1577        -0.0631   
H             0.5322        6.0649        0.4657    
H             2.6233        4.1321        0.2580    
0         9     S     
0         1     A     
0         5     A     
1         2     A     
1         10    S     
2         11    S     
2         3     A     
3         12    S     
3         4     A     
4         5     A     
4         8     A     
5         6     A     
6         7     A     
7         13    S     
7         8     A     
8         14    S     
