16
Properties=species:S:1:pos:R:3 mol=T to=T xyz=T file=T pbc="F F F"
C       -1.35410000       1.17680000       0.00630000
C       -0.58410000      -0.15690000       0.00630000
C        0.95590000      -0.15690000       0.00630000
C        1.72590000       1.17680000       0.00630000
C        0.95590000       2.51050000       0.00630000
C       -0.58410000       2.51050000       0.00630000
X       -2.10400000       1.18350000       0.01270000
H       -1.15410000      -1.14410000       0.00630000
Br       1.99452297      -1.95572210       0.00630000
X        2.47590000       1.18280000       0.01350000
C       -0.61260000       4.05020000       0.00630000
C        0.92740000       4.05550000       0.00630000
H       -1.05070000       4.47880000       0.96750000
H       -1.15700000       4.42020000      -0.92450000
H        1.35810000       4.49580000      -0.95300000
H        1.45770000       4.44530000       0.93710000
0       5     A
0       1     A
0       6     S
5       4     A
5       10    S
1       2     A
1       7     S
2       8     S
2       3     A
3       4     A
3       9     S
4       11    S
11      10    S
11      14    S
11      15    S
10      13    S
10      12    S
