47
Properties=species:S:1:pos:R:3 mol=T to=T xyz=T file=T pbc="F F F"
C        3.25280000      -4.16790000       3.67510000
C        2.19370000      -3.16140000       3.18970000
H        1.11300000      -3.49510000       3.04710000
C        2.59230000      -1.70050000       2.91040000
C        4.04800000      -1.24260000       3.12300000
C        5.11830000      -2.26800000       3.54540000
C        4.71810000      -3.72620000       3.83490000
C        8.87790000       1.31810000       2.18060000
C        7.89280000       2.40360000       2.65220000
H        8.25100000       3.47690000       2.79130000
C        6.42130000       2.04130000       2.92500000
C        5.93150000       0.59500000       2.71890000
C        6.93430000      -0.50100000       2.30920000
C        8.40340000      -0.13750000       2.02710000
C        4.44270000       0.23600000       2.91730000
C        3.36060000       1.34310000       2.90990000
C        1.98670000       1.09860000       3.57020000
C        0.79260000       2.00220000       3.20770000
H        0.93480000       2.87110000       2.48380000
C       -0.60010000       1.71400000       3.79620000
H       -1.48870000       2.36590000       3.50500000
C       -0.79580000       0.53800000       4.76860000
C        0.40890000      -0.32590000       5.18400000
H        0.26900000      -1.18140000       5.92470000
C        1.79990000      -0.04320000       4.58760000
H        1.80570000      -0.95240000       2.56220000
H        6.20320000      -1.94120000       3.66950000
H        5.50560000      -4.47760000       4.17350000
H        2.68950000      -0.69060000       4.88570000
C        3.64080000       2.70670000       2.24230000
C        2.76160000       3.92300000       2.58970000
H        1.88430000       3.80480000       3.30760000
C        3.08560000       5.30520000       1.99450000
H        2.45010000       6.20960000       2.27370000
C        4.27250000       5.46760000       1.02860000
C        5.11190000       4.24140000       0.62820000
H        5.97630000       4.35770000      -0.10580000
C        4.79390000       2.86120000       1.23200000
H        5.68940000       2.84750000       3.26330000
H        6.58330000      -1.57900000       2.19220000
C        9.39574174      -1.22750892       1.58158638
H        5.42320000       1.95520000       0.94400000
X        4.44320000       6.14490000       0.75540000
X        9.58840000       1.49890000       2.02230000
X        3.05450000      -4.87300000       3.83650000
X       -1.47860000       0.38460000       5.03820000
N       10.36906477      -2.29670792       1.14545712
0       1     A
0       6     A
0       44    S
1       2     S
1       3     A
6       5     A
6       27    S
3       25    S
3       4     A
4       5     A
4       14    S
5       26    S
14      11    S
14      15    D
7       8     A
7       43    S
7       13    A
8       10    A
8       9     S
13      12    A
13      40    S
10      38    S
10      11    A
11      12    A
12      39    S
40      46    T
15      29    S
15      16    S
29      30    A
29      37    A
16      17    A
16      24    A
17      18    S
17      19    A
24      22    A
24      28    S
19      20    S
19      21    A
21      45    S
21      22    A
22      23    S
30      31    S
30      32    A
37      35    A
37      41    S
32      34    A
32      33    S
34      42    S
34      35    A
35      36    S
