72
mol to xyz file
C             2.6233        -0.3626       0.2609    
C             3.3560        -1.7223       0.3660    
C             4.8904        -1.7633       0.5138    
C             5.6849        -0.4518       0.6953    
C             4.9278        0.8886        0.8514    
C             3.4116        0.9415        0.5410    
C             5.6497        2.1278        1.4562    
C             7.1098        2.0205        1.9469    
C             8.0958        0.5545        0.1235    
C             7.2204        -0.4983       0.8317    
C             1.1415        -0.2949       -0.2122   
C             0.4571        1.0667        -0.4602   
C             1.4315        2.5010        1.4152    
C             2.6798        2.2949        0.5348    
C             0.3391        -1.5822       -0.4970   
C             1.3844        -3.3698       1.1172    
C             2.5911        -3.0496       0.2117    
C             5.6191        -3.1272       0.4961    
C             4.8745        -4.4019       0.9397    
C             3.0637        -4.0785       -0.8329   
C             4.8961        3.4604        1.6673    
C             3.1987        3.4480        -0.3474   
C             7.0871        -3.2251       0.0397    
C             7.8809        -1.5769       1.7103    
C             -1.0587       1.1409        -0.7186   
C             -1.8868       -0.1501       -0.8062   
C             -1.1800       -1.5134       -0.7427   
C             2.4694        4.8045        -0.3488   
C             1.2231        5.0090        0.5323    
C             0.7041        3.8581        1.4139    
C             7.8643        3.2725        2.4304    
C             7.1422        4.6281        2.4986    
C             5.6485        4.7150        2.1475    
C             9.4065        -1.5834       1.9129    
C             10.2757       -0.5120       1.2326    
C             9.6226        0.5486        0.3275    
C             5.5984        -5.7601       0.9486    
C             7.0733        -5.8478       0.5217    
C             7.8164        -4.5814       0.0617    
C             0.6342        -4.7057       0.9517    
C             1.0877        -5.7169       -0.1186   
C             2.3052        -5.4054       -1.0076   
X             -3.3555       -0.0772       -0.9666   
X             0.5242        6.3129        0.5366    
X             7.8757        5.8409        2.9229    
X             0.3528        -6.9888       -0.2960   
X             7.7769        -7.1480       0.5610    
X             11.7378       -0.4997       1.4543    
H             -1.5679       2.1537        -0.8405   
H             -1.7798       -2.4731       -0.8795   
H             2.8517        5.6573        -1.0017   
H             -0.2197       4.0110        2.0643    
H             8.9580        3.1934        2.7421    
H             5.0956        5.7069        2.2499    
H             9.8917        -2.3769       2.5722    
H             10.2697       1.3347        -0.1851   
H             5.0445        -6.7002       1.2792    
H             8.9073        -4.6480       -0.2628   
H             -0.2603       -4.9442       1.6172    
H             2.6455        -6.1577       -1.7939   
H             7.6333        1.0112        1.9688    
H             7.6113        1.3478        -0.5366   
H             1.0691        2.0247        -0.4592   
H             1.0449        1.6476        2.0645    
H             3.7865        -4.3386       1.2728    
H             3.9738        -3.8531       -1.4813   
H             3.7765        3.5211        1.4890    
H             4.1238        3.2974        -0.9960   
H             7.6362        -2.2905       -0.3130   
H             7.2360        -2.3678       2.2182    
H             0.8651        -2.5877       -0.5393   
H             1.0447        -2.6174       1.9033    
0         1     A     
0         5     A     
0         10    S     
1         2     A     
1         16    S     
2         3     A     
2         17    S     
3         9     S     
3         4     A     
4         5     A     
4         6     S     
5         13    S     
6         20    A     
6         7     A     
7         30    A     
7         60    S     
8         35    A     
8         9     A     
8         61    S     
9         23    A     
10        14    A     
10        11    A     
11        24    A     
11        62    S     
12        13    A     
12        29    A     
12        63    S     
13        21    A     
14        26    A     
14        70    S     
15        16    A     
15        39    A     
15        71    S     
16        19    A     
17        22    A     
17        18    A     
18        64    S     
18        36    A     
19        65    S     
19        41    A     
20        66    S     
20        32    A     
21        67    S     
21        27    A     
22        38    A     
22        68    S     
23        33    A     
23        69    S     
24        48    S     
24        25    A     
25        42    S     
25        26    A     
26        49    S     
27        50    S     
27        28    A     
28        29    A     
28        43    S     
29        51    S     
30        52    S     
30        31    A     
31        32    A     
31        44    S     
32        53    S     
33        54    S     
33        34    A     
34        47    S     
34        35    A     
35        55    S     
36        37    A     
36        56    S     
37        38    A     
37        46    S     
38        57    S     
39        58    S     
39        40    A     
40        45    S     
40        41    A     
41        59    S     
