73
Properties=species:S:1:pos:R:3 mol=T to=T xyz=T file=T pbc="F F F"
C        2.62330000      -0.36260000       0.26090000
C        3.35600000      -1.72230000       0.36600000
C        4.89040000      -1.76330000       0.51380000
C        5.68490000      -0.45180000       0.69530000
C        4.92780000       0.88860000       0.85140000
C        3.41160000       0.94150000       0.54100000
C        5.64970000       2.12780000       1.45620000
C        7.10980000       2.02050000       1.94690000
C        8.09580000       0.55450000       0.12350000
C        7.22040000      -0.49830000       0.83170000
C        1.14150000      -0.29490000      -0.21220000
C        0.45710000       1.06670000      -0.46020000
C        1.43150000       2.50100000       1.41520000
C        2.67980000       2.29490000       0.53480000
C        0.33910000      -1.58220000      -0.49700000
C        1.38440000      -3.36980000       1.11720000
C        2.59110000      -3.04960000       0.21170000
C        5.61910000      -3.12720000       0.49610000
C        4.87450000      -4.40190000       0.93970000
C        3.06370000      -4.07850000      -0.83290000
C        4.89610000       3.46040000       1.66730000
C        3.19870000       3.44800000      -0.34740000
C        7.08710000      -3.22510000       0.03970000
C        7.88090000      -1.57690000       1.71030000
C       -1.05870000       1.14090000      -0.71860000
C       -1.88680000      -0.15010000      -0.80620000
C       -1.18000000      -1.51340000      -0.74270000
C        2.46940000       4.80450000      -0.34880000
C        1.22310000       5.00900000       0.53230000
C        0.70410000       3.85810000       1.41390000
C        7.86430000       3.27250000       2.43040000
C        7.14220000       4.62810000       2.49860000
C        5.64850000       4.71500000       2.14750000
C        9.40650000      -1.58340000       1.91290000
C       10.27570000      -0.51200000       1.23260000
C        9.62260000       0.54860000       0.32750000
C        5.59840000      -5.76010000       0.94860000
C        7.07330000      -5.84780000       0.52170000
C        7.81640000      -4.58140000       0.06170000
C        0.63420000      -4.70570000       0.95170000
C        1.08770000      -5.71690000      -0.11860000
C        2.30520000      -5.40540000      -1.00760000
X       -3.35550000      -0.07720000      -0.96660000
X        0.52420000       6.31290000       0.53660000
X        7.87570000       5.84090000       2.92290000
X        0.35280000      -6.98880000      -0.29600000
X        7.77690000      -7.14800000       0.56100000
X       11.73780000      -0.49970000       1.45430000
H       -1.56790000       2.15370000      -0.84050000
H       -1.77980000      -2.47310000      -0.87950000
H        2.85170000       5.65730000      -1.00170000
H       -0.21970000       4.01100000       2.06430000
H        8.95800000       3.19340000       2.74210000
O        4.97128619       5.92991840       2.27292358
H        9.89170000      -2.37690000       2.57220000
H       10.26970000       1.33470000      -0.18510000
H        5.04450000      -6.70020000       1.27920000
H        8.90730000      -4.64800000      -0.26280000
H       -0.26030000      -4.94420000       1.61720000
H        2.64550000      -6.15770000      -1.79390000
H        7.63330000       1.01120000       1.96880000
H        7.61130000       1.34780000      -0.53660000
H        1.06910000       2.02470000      -0.45920000
H        1.04490000       1.64760000       2.06450000
H        3.78650000      -4.33860000       1.27280000
H        3.97380000      -3.85310000      -1.48130000
H        3.77650000       3.52110000       1.48900000
H        4.12380000       3.29740000      -0.99600000
H        7.63620000      -2.29050000      -0.31300000
H        7.23600000      -2.36780000       2.21820000
H        0.86510000      -2.58770000      -0.53930000
H        1.04470000      -2.61740000       1.90330000
H        5.58852412       6.72688187       2.37884410
0       1     A
0       5     A
0       10    S
1       2     A
1       16    S
5       4     A
5       13    S
10      14    A
10      11    A
2       3     A
2       17    S
16      15    A
16      19    A
3       9     S
3       4     A
17      22    A
17      18    A
9       8     A
9       23    A
4       6     S
6       20    A
6       7     A
13      12    A
13      21    A
20      66    S
20      32    A
7       30    A
7       60    S
30      52    S
30      31    A
8       35    A
8       61    S
35      34    A
35      55    S
23      33    A
23      69    S
14      26    A
14      70    S
11      24    A
11      62    S
24      48    S
24      25    A
12      29    A
12      63    S
29      28    A
29      51    S
21      67    S
21      27    A
26      25    A
26      49    S
15      39    A
15      71    S
39      58    S
39      40    A
19      65    S
19      41    A
22      38    A
22      68    S
18      64    S
18      36    A
36      37    A
36      56    S
41      40    A
41      59    S
32      31    A
32      53    S
27      50    S
27      28    A
38      37    A
38      57    S
33      54    S
33      34    A
25      42    S
28      43    S
31      44    S
53      72    S
34      47    S
37      46    S
40      45    S
