122
Properties=species:S:1:pos:R:3 mol=T to=T xyz=T file=T pbc="F F F"
C       -0.62370000      -1.38710000      -0.21930000
C        0.62700000      -0.58180000       0.17910000
C        0.57860000       0.95730000       0.19650000
C       -0.72060000       1.69120000      -0.18440000
C       -1.97130000       0.88590000      -0.58280000
C       -1.92290000      -0.65320000      -0.60030000
C       -3.17370000      -1.45850000      -0.99870000
C       -4.47290000      -0.72460000      -1.37960000
C       -4.52130000       0.81450000      -1.36220000
C       -3.27050000       1.61980000      -0.96380000
C        1.82940000       1.76260000       0.59490000
C        3.12860000       1.02870000       0.97590000
C        3.17700000      -0.51040000       0.95850000
C        1.92620000      -1.31570000       0.56010000
C        4.37930000       1.83400000       1.37430000
C        4.33090000       3.37310000       1.39170000
C        3.03170000       4.10700000       1.01070000
C        1.78100000       3.30170000       0.61230000
C        1.97470000      -2.85480000       0.54270000
C        3.27380000      -3.58870000       0.92370000
C        4.52460000      -2.78340000       1.32200000
C        4.47620000      -1.24430000       1.33950000
C       -3.31900000       3.15890000      -0.94640000
C       -4.61810000       3.89280000      -1.32740000
C       -5.86890000       3.08750000      -1.72580000
C       -5.82050000       1.54840000      -1.74320000
C       -5.72360000      -1.52990000      -1.77800000
C       -5.67520000      -3.06910000      -1.79540000
C       -4.37600000      -3.80290000      -1.41450000
C       -3.12530000      -2.99760000      -1.01610000
C       -0.76900000       3.23030000      -0.16700000
C       -2.06820000       3.96420000      -0.54800000
C       -0.57530000      -2.92620000      -0.23670000
C       -1.82610000      -3.73150000      -0.63510000
C        0.48180000       4.03560000       0.23140000
C        0.72390000      -3.66010000       0.14430000
C       -2.11660000       5.50330000      -0.53060000
C       -0.86580000       6.30860000      -0.13220000
C        0.43340000       5.57470000       0.24880000
C       -1.77760000      -5.27070000      -0.65250000
C       -0.47850000      -6.00450000      -0.27150000
C        0.77230000      -5.19930000       0.12690000
C       -0.91430000       7.84770000      -0.11480000
C       -2.21350000       8.58160000      -0.49580000
C       -2.26190000      10.12070000      -0.47830000
C       -1.01110000      10.92600000      -0.07990000
C        0.28810000      10.19210000       0.30100000
C        0.33650000       8.65300000       0.28360000
C       -0.33320000     -10.62190000      -0.32380000
C       -6.92600000      -3.87430000      -2.19380000
C       -8.22520000      -3.14050000      -2.57480000
C       -8.41890000       3.01610000      -2.50520000
C       -7.16810000       3.82140000      -2.10680000
C       -7.21650000       5.36050000      -2.08930000
C       -8.51570000       6.09440000      -2.47030000
C       -9.76650000       5.28910000      -2.86870000
C       -9.71810000       3.75000000      -2.88610000
C       -9.47590000      -3.94570000      -2.97320000
C       -9.42750000      -5.48490000      -2.99060000
C       -8.12830000      -6.21870000      -2.60960000
C       -6.87760000      -5.41350000      -2.21130000
C        5.58170000       4.17840000       1.79010000
C        6.88090000       3.44450000       2.17110000
C        8.13160000       4.24980000       2.56950000
C        8.08320000       5.78890000       2.58690000
C        6.78400000       6.52280000       2.20590000
C        5.53330000       5.71750000       1.80750000
C        7.07460000      -2.71200000       2.10140000
C        5.82380000      -3.51730000       1.70300000
C        5.87220000      -5.05640000       1.68560000
C        7.17140000      -5.79030000       2.06660000
C        8.42220000      -4.98500000       2.46500000
C        8.37380000      -3.44590000       2.48240000
X        9.05480000      -5.34260000       2.65060000
X        8.69240000       6.18080000       2.78120000
X       -1.03480000      11.67560000      -0.07120000
X      -10.39940000       5.64620000      -3.05430000
X      -10.03670000      -5.87710000      -3.18460000
X       -0.30960000     -11.37150000      -0.33230000
C       -0.43000000      -7.54370000      -0.28890000
C       -1.68080000      -8.34890000      -0.68730000
C       -1.63240000      -9.88810000      -0.70480000
C        0.91760000      -9.81670000       0.07460000
C        0.86920000      -8.27750000       0.09200000
H        5.34110000       1.29070000       1.65630000
H        2.99590000       5.24640000       1.02360000
H        3.30970000      -4.72810000       0.91080000
H        5.40210000      -0.64820000       1.63440000
H       -4.65400000       5.03210000      -1.31450000
N       -6.98973212       0.79564131      -2.11560150
H       -6.68540000      -0.98670000      -2.06000000
H       -4.34020000      -4.94230000      -1.42740000
H       -3.07830000       6.04660000      -0.81260000
H        1.35920000       6.17080000       0.54370000
H       -2.70350000      -5.86680000      -0.94740000
H        1.73400000      -5.74250000       0.40890000
H       -3.13930000       7.98550000      -0.79070000
H       -3.22360000      10.66400000      -0.76040000
H        1.21400000      10.78830000       0.59590000
H        1.29820000       8.10980000       0.56560000
H       -8.26100000      -2.00110000      -2.56190000
H       -8.38300000       1.87670000      -2.51800000
H       -6.29060000       5.95660000      -1.79440000
H       -8.55160000       7.23370000      -2.45740000
H      -10.64390000       3.15390000      -3.18100000
H      -10.43770000      -3.40250000      -3.25520000
H       -8.09250000      -7.35810000      -2.62250000
H       -5.91580000      -5.95670000      -1.92920000
H        6.91670000       2.30520000       2.15820000
H        9.09340000       3.70650000       2.85150000
H        6.74820000       7.66220000       2.21880000
H        4.57150000       6.26080000       1.52550000
H        7.03870000      -1.57270000       2.11430000
H        4.94630000      -5.65260000       1.39070000
H        7.20730000      -6.92970000       2.05370000
H        9.29960000      -2.84980000       2.77730000
H       -2.64250000      -7.80570000      -0.96940000
H       -2.55830000     -10.48420000      -0.99970000
H        1.87930000     -10.35990000       0.35660000
H        1.79500000      -7.68140000       0.38690000
H       -7.46253071       0.10697035      -1.38468545
H       -7.41848115       0.90402772      -3.13370255
0       5     A
0       32    A
0       1     A
5       4     A
5       6     A
32      33    A
32      35    A
1       13    A
1       2     A
13      12    A
13      18    A
2       10    A
2       3     A
10      11    A
10      17    A
3       4     A
3       30    A
4       9     A
30      31    A
30      34    A
9       8     A
9       22    A
6       7     A
6       29    A
7       8     A
7       26    A
29      28    A
29      33    A
8       25    A
26      90    S
26      27    A
25      24    A
25      89    S
22      31    A
22      23    A
11      14    A
11      12    A
17      16    A
17      34    A
14      15    A
14      84    S
12      21    A
21      20    A
21      87    S
18      19    A
18      35    A
15      16    A
15      61    S
16      85    S
61      66    A
61      62    A
34      38    A
19      86    S
19      20    A
35      41    A
20      68    S
68      67    A
68      69    A
31      36    A
23      88    S
23      24    A
24      52    S
52      51    A
52      53    A
89      120   S
89      121   S
27      49    S
27      28    A
49      50    A
49      60    A
28      91    S
33      39    A
36      92    S
36      37    A
39      94    S
39      40    A
38      37    A
38      93    S
41      40    A
41      95    S
37      42    S
42      43    A
42      47    A
40      79    S
79      80    A
79      83    A
43      96    S
43      44    A
47      46    A
47      99    S
44      97    S
44      45    A
45      75    S
45      46    A
46      98    S
48      81    A
48      78    S
48      82    A
81      80    A
81      117   S
82      118   S
82      83    A
50      100   S
50      57    A
60      59    A
60      107   S
57      105   S
57      58    A
51      101   S
51      56    A
56      55    A
56      104   S
53      54    A
53      102   S
54      103   S
54      55    A
55      76    S
58      77    S
58      59    A
59      106   S
66      65    A
66      111   S
62      108   S
62      63    A
63      109   S
63      64    A
64      65    A
64      74    S
65      110   S
67      72    A
67      112   S
72      71    A
72      115   S
69      113   S
69      70    A
70      114   S
70      71    A
71      73    S
80      116   S
83      119   S
