66
mol to xyz file
C             28.4010       42.6015       30.1662   
C             28.4010       42.6015       26.6358   
C             29.2867       41.6687       29.2867   
C             30.1662       42.6015       28.4010   
H             30.8294       41.9630       27.7286   
H             30.8243       43.2500       29.0688   
C             27.5153       43.5343       29.2867   
C             26.6358       42.6015       28.4010   
H             25.9726       43.2400       27.7286   
H             25.9777       41.9530       29.0688   
C             27.5153       41.6687       27.5153   
H             27.7189       43.2349       25.9777   
C             28.4010       40.8013       28.4010   
H             29.0546       40.1432       27.7382   
H             27.7444       40.1401       29.0576   
C             28.4010       44.4016       28.4010   
H             29.0734       41.9630       25.9726   
C             29.2867       43.5343       27.5153   
H             27.7474       45.0598       27.7382   
H             29.0576       45.0629       29.0576   
H             27.7286       41.9630       30.8294   
H             29.0831       43.2349       30.8243   
C             29.9467       41.0140       29.9467   
C             26.8553       44.1890       29.9467   
C             26.8553       41.0140       26.8553   
C             29.9467       44.1890       26.8553   
C             27.4232       44.7950       31.2435   
C             26.5318       45.6794       32.1350   
C             25.0724       45.9578       31.7296   
C             24.5045       45.3518       30.4327   
C             25.3960       44.4674       29.5413   
C             29.3788       44.7950       25.5585   
C             30.2702       45.6794       24.6670   
C             31.7296       45.9578       25.0724   
C             32.2975       45.3518       26.3693   
C             31.4060       44.4674       27.2607   
C             29.3788       40.4080       31.2435   
C             30.2702       39.5236       32.1350   
C             31.7296       39.2452       31.7296   
C             32.2975       39.8512       30.4327   
C             31.4060       40.7356       29.5413   
C             27.4232       40.4080       25.5585   
C             26.5318       39.5236       24.6670   
C             25.0724       39.2452       25.0724   
C             24.5045       39.8512       26.3693   
C             25.3960       40.7356       27.2607   
H             28.5035       44.5889       31.5436   
H             26.9522       46.1280       33.0950   
H             23.4242       45.5579       30.1326   
H             24.9756       44.0188       28.5812   
H             28.2984       44.5889       25.2584   
H             29.8498       46.1280       23.7070   
H             33.3778       45.5579       26.6694   
H             31.8264       44.0188       28.2208   
H             28.2984       40.6141       31.5436   
H             29.8498       39.0750       33.0950   
H             33.3778       39.6451       30.1326   
H             31.8264       41.1842       28.5812   
H             28.5036       40.6141       25.2584   
H             26.9522       39.0750       23.7070   
H             23.4242       39.6451       26.6694   
H             24.9756       41.1842       28.2208   
X             24.6383       46.3885       32.1637   
X             32.1637       46.3885       24.6383   
X             32.1637       38.8145       32.1637   
X             24.6383       38.8145       24.6383   
0         21    S     
0         20    S     
0         6     S     
0         2     S     
1         17    S     
1         10    S     
1         11    S     
1         16    S     
2         12    S     
2         22    S     
2         3     S     
3         5     S     
3         17    S     
3         4     S     
6         7     S     
6         23    S     
6         15    S     
7         9     S     
7         8     S     
7         10    S     
10        24    S     
10        12    S     
12        14    S     
12        13    S     
15        19    S     
15        18    S     
15        17    S     
17        25    S     
22        40    A     
22        36    A     
23        30    A     
23        26    A     
24        45    A     
24        41    A     
25        35    A     
25        31    A     
26        46    S     
26        27    A     
27        47    S     
27        28    A     
28        29    A     
28        62    S     
29        48    S     
29        30    A     
30        49    S     
31        50    S     
31        32    A     
32        51    S     
32        33    A     
33        34    A     
33        63    S     
34        52    S     
34        35    A     
35        53    S     
36        54    S     
36        37    A     
37        55    S     
37        38    A     
38        39    A     
38        64    S     
39        56    S     
39        40    A     
40        57    S     
41        58    S     
41        42    A     
42        59    S     
42        43    A     
43        44    A     
43        65    S     
44        45    A     
44        60    S     
45        61    S     
