106
mol to xyz file
C             28.4010       42.6015       30.1662   
C             28.4010       42.6015       26.6358   
C             29.2867       41.6687       29.2867   
C             30.1662       42.6015       28.4010   
H             30.8294       41.9630       27.7286   
H             30.8243       43.2500       29.0688   
C             27.5153       43.5343       29.2867   
C             26.6358       42.6015       28.4010   
H             25.9726       43.2400       27.7286   
H             25.9777       41.9530       29.0688   
C             27.5153       41.6687       27.5153   
H             27.7189       43.2349       25.9777   
C             28.4010       40.8013       28.4010   
H             29.0546       40.1432       27.7382   
H             27.7444       40.1401       29.0576   
C             28.4010       44.4016       28.4010   
H             29.0734       41.9630       25.9726   
C             29.2867       43.5343       27.5153   
H             27.7474       45.0598       27.7382   
H             29.0576       45.0629       29.0576   
H             27.7286       41.9630       30.8294   
H             29.0831       43.2349       30.8243   
C             29.9467       41.0140       29.9467   
C             26.8553       44.1890       29.9467   
C             26.8553       41.0140       26.8553   
C             29.9467       44.1890       26.8553   
C             27.4232       44.7950       31.2435   
C             26.5318       45.6794       32.1350   
C             25.0724       45.9578       31.7296   
C             24.5045       45.3518       30.4327   
C             25.3960       44.4674       29.5413   
C             29.3788       44.7950       25.5585   
C             30.2702       45.6794       24.6670   
C             31.7296       45.9578       25.0724   
C             32.2975       45.3518       26.3693   
C             31.4060       44.4674       27.2607   
C             29.3788       40.4080       31.2435   
C             30.2702       39.5236       32.1350   
C             31.7296       39.2452       31.7296   
C             32.2975       39.8512       30.4327   
C             31.4060       40.7356       29.5413   
C             27.4232       40.4080       25.5585   
C             26.5318       39.5236       24.6670   
C             25.0724       39.2452       25.0724   
C             24.5045       39.8512       26.3693   
C             25.3960       40.7356       27.2607   
H             28.5035       44.5889       31.5436   
H             26.9522       46.1280       33.0950   
H             23.4242       45.5579       30.1326   
H             24.9756       44.0188       28.5812   
H             28.2984       44.5889       25.2584   
H             29.8498       46.1280       23.7070   
H             33.3778       45.5579       26.6694   
H             31.8264       44.0188       28.2208   
H             28.2984       40.6141       31.5436   
H             29.8498       39.0750       33.0950   
H             33.3778       39.6451       30.1326   
H             31.8264       41.1842       28.5812   
H             28.5036       40.6141       25.2584   
H             26.9522       39.0750       23.7070   
H             23.4242       39.6451       26.6694   
H             24.9756       41.1842       28.2208   
C             24.4125       46.6125       32.3895   
C             32.3895       46.6125       24.4125   
C             32.3895       38.5905       32.3895   
C             24.4125       38.5905       24.4125   
C             24.9965       47.8740       33.0521   
C             24.1050       48.7584       33.9436   
C             22.6296       48.3813       34.1724   
C             22.0456       47.1198       33.5098   
C             22.9370       46.2354       32.6183   
C             31.8055       47.8740       23.7499   
C             32.6970       48.7584       22.8584   
C             34.1724       48.3813       22.6296   
C             34.7564       47.1198       23.2922   
C             33.8650       46.2354       24.1837   
C             31.8055       37.3290       33.0521   
C             32.6970       36.4446       33.9436   
C             34.1724       36.8217       34.1724   
C             34.7564       38.0832       33.5098   
C             33.8650       38.9676       32.6183   
C             24.9965       37.3290       23.7499   
C             24.1050       36.4446       22.8584   
C             22.6296       36.8217       22.6296   
C             22.0456       38.0832       23.2922   
C             22.9370       38.9676       24.1837   
H             26.0887       48.1532       32.8827   
H             24.5374       49.6923       34.4341   
H             20.9533       46.8406       33.6792   
H             22.5047       45.3015       32.1278   
H             30.7133       48.1532       23.9193   
H             32.2646       49.6923       22.3679   
H             35.8486       46.8406       23.1228   
H             34.2973       45.3015       24.6742   
H             30.7133       37.0498       32.8827   
H             32.2646       35.5107       34.4341   
H             35.8486       38.3624       33.6792   
H             34.2973       39.9015       32.1278   
H             26.0887       37.0498       23.9193   
H             24.5374       35.5107       22.3679   
H             20.9533       38.3624       23.1228   
H             22.5047       39.9015       24.6742   
X             22.1954       48.8120       34.6066   
X             34.6066       36.3910       34.6066   
X             34.6066       48.8120       22.1954   
X             22.1954       36.3910       22.1954   
0         21    S     
0         20    S     
0         6     S     
0         2     S     
1         17    S     
1         10    S     
1         11    S     
1         16    S     
2         12    S     
2         22    S     
2         3     S     
3         5     S     
3         17    S     
3         4     S     
6         7     S     
6         23    S     
6         15    S     
7         9     S     
7         8     S     
7         10    S     
10        24    S     
10        12    S     
12        14    S     
12        13    S     
15        19    S     
15        18    S     
15        17    S     
17        25    S     
22        40    A     
22        36    A     
23        30    A     
23        26    A     
24        45    A     
24        41    A     
25        35    A     
25        31    A     
26        46    S     
26        27    A     
27        47    S     
27        28    A     
28        29    A     
28        62    S     
29        48    S     
29        30    A     
30        49    S     
31        50    S     
31        32    A     
32        51    S     
32        33    A     
33        34    A     
33        63    S     
34        52    S     
34        35    A     
35        53    S     
36        54    S     
36        37    A     
37        55    S     
37        38    A     
38        39    A     
38        64    S     
39        56    S     
39        40    A     
40        57    S     
41        58    S     
41        42    A     
42        59    S     
42        43    A     
43        44    A     
43        65    S     
44        45    A     
44        60    S     
45        61    S     
62        70    A     
62        66    A     
63        75    A     
63        71    A     
64        76    A     
64        80    A     
65        81    A     
65        85    A     
66        86    S     
66        67    A     
67        68    A     
67        87    S     
68        102   S     
68        69    A     
69        70    A     
69        88    S     
70        89    S     
71        90    S     
71        72    A     
72        73    A     
72        91    S     
73        104   S     
73        74    A     
74        75    A     
74        92    S     
75        93    S     
76        94    S     
76        77    A     
77        95    S     
77        78    A     
78        103   S     
78        79    A     
79        80    A     
79        96    S     
80        97    S     
81        98    S     
81        82    A     
82        99    S     
82        83    A     
83        105   S     
83        84    A     
84        100   S     
84        85    A     
85        101   S     
