71
Properties=species:S:1:pos:R:3 mol=T to=T xyz=T file=T pbc="F F F"
C       28.12960000      22.23750000      11.49830000
C       30.12300000      26.03430000      12.80210000
C       30.22930000      25.41240000      11.51590000
C       31.23310000      25.74720000      10.65960000
C       32.13020000      26.67700000      11.03270000
C       32.01170000      27.47150000      12.20200000
C       31.01570000      27.15640000      13.16170000
H       30.91020000      27.75110000      14.07600000
H       31.36150000      25.25590000       9.69960000
H       32.89460000      26.89880000      10.27960000
C       25.50950000      21.87500000      13.95300000
C       25.82860000      20.74060000      14.75530000
C       24.58980000      22.79810000      14.30290000
C       23.97730000      22.63180000      15.45550000
C       24.09580000      21.46250000      16.25000000
C       25.09180000      20.50280000      15.93490000
H       25.19730000      19.58850000      16.52960000
H       24.36640000      23.68290000      13.71100000
H       23.21290000      23.38490000      15.67730000
C       30.53480000      19.74780000      10.28220000
C       30.37120000      18.89440000       9.24380000
C       31.34510000      19.41460000      11.41760000
C       32.13020000      18.20900000      11.41030000
C       32.01170000      17.41450000      10.24100000
C       31.01570000      17.72960000       9.28130000
H       29.71680000      19.10790000       8.40260000
H       30.91020000      17.13490000       8.36700000
H       32.89460000      17.98720000      12.16340000
C       25.88870000      23.23910000       8.38620000
C       25.88800000      24.34490000       7.59510000
C       25.00790000      22.14020000       8.08620000
C       23.97730000      22.25420000       6.98750000
C       24.09580000      23.42350000       6.19300000
C       25.09180000      24.38320000       6.50810000
H       26.56080000      25.17850000       7.77450000
H       25.19730000      25.29750000       5.91340000
H       23.21290000      21.50110000       6.76570000
X       23.63400000      23.53040000       5.61180000
X       32.47350000      28.05270000      12.30890000
X       32.47350000      16.83330000      10.13410000
X       23.63400000      21.35560000      16.83120000
C       27.13400000      22.13920000      10.20600000
C       26.83410000      23.25790000       9.43930000
C       26.32680000      20.98520000       9.88360000
C       25.26950000      20.99730000       8.88850000
H       27.34520000      24.18320000       9.64570000
N       24.48509909      19.80753219       8.68461960
H       26.47500000      20.07780000      10.45580000
C       28.43950000      24.27280000      13.26270000
C       28.56030000      23.70010000      11.94920000
C       29.42040000      24.36020000      11.09120000
C       29.16450000      25.44830000      13.65910000
H       27.83810000      23.78770000      14.01760000
H       29.03890000      25.83790000      14.66160000
H       29.59070000      23.92290000      10.11200000
C       27.35270000      21.54960000      12.57560000
C       27.64090000      20.31560000      13.23190000
C       26.19220000      22.19320000      12.84850000
C       26.87250000      19.91430000      14.33480000
H       28.45100000      19.67360000      12.91660000
H       27.11950000      19.00840000      14.87520000
H       25.91120000      23.07310000      12.26880000
C       29.46140000      21.50880000      11.38620000
C       29.74400000      20.86240000      10.22640000
C       30.35150000      21.34530000      12.49250000
C       31.30600000      20.30390000      12.49930000
H       29.18350000      21.08360000       9.32610000
H       30.20500000      21.92740000      13.39420000
H       31.91770000      20.13280000      13.37630000
O       24.90407723      18.65488581       9.12058342
O       23.34401465      19.86499555       8.06107496
1       6     A
1       2     A
1       51    A
6       5     A
6       7     S
2       3     A
2       50    A
3       4     A
3       8     S
4       5     A
4       9     S
5       38    S
10      12    A
10      11    A
10      57    A
12      13    A
12      17    S
11      15    A
11      58    A
15      14    A
15      16    S
13      18    S
13      14    A
14      40    S
19      20    A
19      21    A
19      63    A
20      24    A
20      25    S
21      22    A
21      65    A
24      23    A
24      26    S
22      27    S
22      23    A
23      39    S
28      29    A
28      30    A
28      42    A
29      34    S
29      33    A
30      31    A
30      44    A
33      32    A
33      35    S
31      36    S
31      32    A
32      37    S
41      42    A
41      43    A
41      0     S
42      45    S
43      44    A
43      47    S
44      46    S
46      69    D
46      70    S
48      52    S
48      51    A
48      49    A
51      53    S
49      50    A
49      0     S
50      54    S
55      57    A
55      56    A
55      0     S
57      61    S
56      59    S
56      58    A
58      60    S
62      63    A
62      64    A
62      0     S
63      66    S
64      67    S
64      65    A
65      68    S
