85
Properties=species:S:1:pos:R:3 mol=T to=T xyz=T file=T pbc="F F F"
C       28.05380000      22.44300000      11.22150000
C       31.54520000      27.83540000      13.30010000
C       31.65330000      27.05130000      12.12410000
C       32.65520000      27.36100000      11.16940000
C       33.52780000      28.45260000      11.37900000
C       33.40930000      29.24710000      12.54830000
C       32.41330000      28.93200000      13.50790000
H       30.75420000      27.57880000      14.07990000
H       32.31430000      29.56690000      14.44960000
H       32.75970000      26.72800000      10.22700000
H       34.33020000      28.69730000      10.60710000
C       24.45420000      21.54040000      15.82980000
C       24.56230000      20.36440000      16.61390000
C       23.45230000      22.49510000      16.13950000
C       22.57970000      22.28550000      17.23110000
C       22.69820000      21.11620000      18.02560000
C       23.69430000      20.15660000      17.71050000
H       25.35160000      19.58150000      16.36140000
H       23.79320000      19.21490000      18.34540000
H       23.34780000      23.43750000      15.50650000
H       21.77730000      23.05740000      17.47580000
C       31.65330000      17.83470000      10.31890000
C       31.54520000      17.05060000       9.14290000
C       32.65520000      17.52500000      11.27360000
C       33.52780000      16.43340000      11.06400000
C       33.40930000      15.63890000       9.89470000
C       32.41330000      15.95400000       8.93510000
H       30.75590000      17.30310000       8.36000000
H       32.31430000      15.31920000       7.99340000
H       32.75970000      18.15800000      12.21600000
C       24.45420000      23.34560000       6.61320000
C       24.56230000      24.52160000       5.82910000
C       23.45230000      22.39090000       6.30350000
C       22.57970000      22.60050000       5.21190000
C       22.69820000      23.76980000       4.41740000
C       23.69430000      24.72940000       4.73250000
Cl      25.50100393      25.45269249       6.12939487
H       23.79320000      25.67110000       4.09760000
H       23.34780000      21.44850000       6.93650000
H       21.77730000      21.82860000       4.96720000
H       34.11120000      14.75550000       9.73230000
X       22.23640000      23.87660000       3.83620000
X       33.87110000      29.82830000      12.65510000
X       34.05570000      16.27240000      11.57180000
X       22.23640000      21.00940000      18.60680000
C       29.64180000      23.85450000      12.69450000
C       29.01530000      23.64900000      11.44330000
C       29.39280000      24.51220000      10.38980000
C       30.22410000      25.61810000      10.61610000
C       30.75320000      25.87580000      11.89310000
C       30.46760000      24.96660000      12.92570000
H       29.46460000      23.09370000      13.52480000
H       30.91450000      25.13950000      13.96010000
H       29.02020000      24.31550000       9.33050000
H       30.48010000      26.32390000       9.75820000
C       27.09220000      22.22120000      12.42750000
C       26.46570000      20.97000000      12.63300000
C       26.71470000      23.27470000      13.29070000
C       25.88340000      23.04840000      14.39660000
C       25.35430000      21.77140000      14.65430000
C       25.63990000      20.73880000      13.74510000
H       26.62640000      20.12280000      11.88730000
H       25.19310000      19.70440000      13.91800000
H       27.08730000      24.33400000      13.09400000
H       25.62740000      23.90630000      15.10240000
C       29.01530000      21.23700000      10.99970000
C       29.64180000      21.03150000       9.74850000
C       29.39280000      20.37380000      12.05320000
C       30.22410000      19.26790000      11.82690000
C       30.75320000      19.01020000      10.54990000
C       30.46760000      19.91940000       9.51730000
H       29.48120000      21.77720000       8.90130000
H       30.91440000      19.74650000       8.48290000
H       29.02020000      20.57050000      13.11250000
H       30.48010000      18.56210000      12.68480000
C       27.09220000      22.66480000      10.01550000
C       26.46570000      23.91600000       9.81000000
C       26.71470000      21.61130000       9.15230000
C       25.88340000      21.83760000       8.04640000
C       25.35430000      23.11460000       7.78870000
C       25.63990000      24.14720000       8.69790000
H       26.62630000      24.76320000      10.55570000
H       25.19300000      25.18160000       8.52500000
H       27.08730000      20.55200000       9.34900000
H       25.62740000      20.97970000       7.34060000
1       7     S
1       6     A
1       2     A
6       5     A
6       8     S
2       3     A
2       49    S
3       4     A
3       9     S
4       10    S
4       5     A
5       42    S
11      13    A
11      12    A
11      59    S
13      14    A
13      19    S
12      17    S
12      16    A
16      15    A
16      18    S
14      20    S
14      15    A
15      44    S
21      22    A
21      23    A
21      69    S
22      26    A
22      27    S
23      24    A
23      29    S
26      25    A
26      28    S
24      43    S
24      25    A
25      40    S
30      31    A
30      32    A
30      79    S
31      36    S
31      35    A
32      38    S
32      33    A
35      34    A
35      37    S
33      39    S
33      34    A
34      41    S
45      51    S
45      50    A
45      46    A
50      49    A
50      52    S
46      47    A
46      0     S
47      53    S
47      48    A
48      54    S
48      49    A
55      57    A
55      56    A
55      0     S
57      63    S
57      58    A
56      60    A
56      61    S
60      59    A
60      62    S
58      64    S
58      59    A
65      67    A
65      66    A
65      0     S
67      68    A
67      73    S
66      70    A
66      71    S
70      69    A
70      72    S
68      69    A
68      74    S
75      77    A
75      76    A
75      0     S
77      83    S
77      78    A
76      81    S
76      80    A
80      79    A
80      82    S
78      79    A
78      84    S
