141
mol to xyz file
C             28.0538       22.4430       11.2215   
C             34.2229       31.2375       13.9635   
C             34.3311       30.4533       12.7875   
C             35.3329       30.7630       11.8327   
C             36.2055       31.8547       12.0423   
C             36.0870       32.6491       13.2116   
C             35.0910       32.3340       14.1713   
H             33.4336       30.9850       14.7463   
H             34.9920       32.9689       15.1130   
H             35.4374       30.1301       10.8904   
H             37.0080       32.0993       11.2705   
C             21.7764       20.8770       19.2318   
C             21.8846       19.7010       20.0160   
C             20.7746       21.8318       19.5415   
C             19.9020       21.6222       20.6332   
C             20.0205       20.4529       21.4276   
C             21.0165       19.4932       21.1125   
H             22.6739       18.9182       19.7635   
H             21.1155       18.5515       21.7474   
H             20.6701       22.7741       18.9086   
H             19.0995       22.3940       20.8778   
C             34.3311       14.4327       9.6555    
C             34.2229       13.6485       8.4795    
C             35.3329       14.1230       10.6103   
C             36.2055       13.0313       10.4007   
C             36.0870       12.2369       9.2314    
C             35.0910       12.5520       8.2717    
H             33.4336       13.9010       7.6967    
H             34.9920       11.9171       7.3300    
H             35.4374       14.7559       11.5526   
H             37.0080       12.7867       11.1725   
C             21.7764       24.0090       3.2112    
C             21.8846       25.1850       2.4270    
C             20.7746       23.0542       2.9015    
C             19.9020       23.2638       1.8098    
C             20.0205       24.4331       1.0154    
C             21.0165       25.3928       1.3305    
H             22.6739       25.9678       2.6795    
H             21.1155       26.3345       0.6956    
H             20.6701       22.1119       3.5344    
H             19.0995       22.4920       1.5652    
X             19.5587       24.5400       0.4341    
X             36.5488       11.6556       9.1245    
X             36.5488       33.2304       13.3185   
X             19.5587       20.3460       22.0089   
C             32.1584       27.2969       13.4096   
C             31.6809       27.0074       12.1119   
C             32.0652       27.8369       11.0355   
C             32.9170       28.9503       11.2620   
C             33.4046       29.2627       12.5576   
C             33.0067       28.4163       13.6246   
H             33.3843       28.6521       14.6741   
H             33.2252       29.6186       10.3913   
C             24.4266       21.5526       15.7859   
C             23.9491       20.2549       16.0754   
C             24.0423       22.6290       16.6154   
C             23.1905       22.4025       17.7288   
C             22.7029       21.1069       18.0412   
C             23.1008       20.0399       17.1948   
H             22.7232       18.9904       17.4306   
H             22.8823       23.2732       18.3971   
C             31.6809       17.8786       10.3311   
C             32.1584       17.5891       9.0334    
C             32.0652       17.0491       11.4075   
C             32.9170       15.9357       11.1810   
C             33.4046       15.6233       9.8854    
C             33.0067       16.4697       8.8184    
H             33.3843       16.2339       7.7689    
H             33.2252       15.2674       12.0517   
C             24.4266       23.3334       6.6571    
C             23.9492       24.6311       6.3676    
C             24.0423       22.2570       5.8276    
C             23.1905       22.4835       4.7142    
C             22.7029       23.7791       4.4018    
C             23.1008       24.8461       5.2482    
H             22.7232       25.8956       5.0124    
H             22.8823       21.6128       4.0459    
C             31.7809       26.4494       14.4682   
C             30.9433       25.3391       14.2468   
C             31.5884       27.5307       9.7471    
C             30.7458       26.4242       9.5287    
C             31.5884       17.3553       12.6959   
C             30.7458       18.4618       12.9143   
C             24.5191       20.9686       6.1338    
C             25.3617       20.7502       7.2403    
C             24.3266       25.6897       7.2151    
C             25.1642       25.4684       8.3253    
H             23.9534       26.7467       7.0076    
H             25.4528       26.3377       9.0040    
H             24.2239       20.0816       5.4814    
H             25.7331       19.6983       7.4750    
H             30.3744       26.1895       8.4768    
H             31.8836       28.1831       8.8601    
H             30.6547       24.6605       15.1162   
H             32.1541       26.6568       15.5252   
H             30.3743       18.6965       13.9662   
H             31.8836       16.7029       13.5829   
C             29.5917       23.9380       12.7334   
C             29.0294       23.6689       11.4543   
C             29.4876       24.4837       10.3814   
C             30.3485       25.5934       10.5927   
C             30.8208       25.8846       11.8895   
C             30.4498       25.0467       12.9616   
H             29.3342       23.2308       13.5897   
H             29.1641       24.2539       9.3127    
C             27.0781       22.2102       12.4474   
C             26.5158       20.9311       12.7165   
C             26.6199       23.2831       13.2622   
C             25.7590       23.0718       14.3719   
C             25.2867       21.7750       14.6631   
C             25.6577       20.7029       13.8252   
H             26.7499       20.0501       12.0319   
H             26.9434       24.3518       13.0325   
C             29.0294       21.2171       10.9887   
C             29.5917       20.9480       9.7096    
C             29.4876       20.4022       12.0616   
C             30.3485       19.2926       11.8503   
C             30.8208       19.0014       10.5535   
C             30.4498       19.8393       9.4814    
H             29.3576       21.6326       8.8286    
H             29.1641       20.6320       13.1303   
C             27.0781       22.6758       9.9956    
C             26.5158       23.9549       9.7265    
C             26.6199       21.6029       9.1808    
C             25.7590       21.8142       8.0711    
C             25.2867       23.1110       7.7799    
C             25.6577       24.1831       8.6177    
H             26.7499       24.8360       10.4111   
H             26.9434       20.5342       9.4106    
C             25.1642       19.4177       14.1176   
C             24.3266       19.1963       15.2279   
C             25.3617       24.1358       15.2027   
C             24.5191       23.9174       16.3092   
C             30.9433       19.5469       8.1962    
C             31.7809       18.4366       7.9748    
H             23.9534       18.1393       15.4353   
H             25.4414       18.5354       13.4510   
H             25.7227       25.1949       14.9844   
H             24.2239       24.8044       16.9616   
H             30.6661       20.2135       7.3139    
H             32.1541       18.2292       6.9178    
1         2     A     
1         6     A     
1         7     S     
2         3     A     
3         4     A     
3         9     S     
4         10    S     
4         5     A     
5         43    S     
5         6     A     
6         8     S     
11        13    A     
11        12    A     
12        16    A     
12        17    S     
13        14    A     
13        19    S     
14        20    S     
14        15    A     
15        44    S     
15        16    A     
16        18    S     
21        23    A     
21        22    A     
22        26    A     
22        27    S     
23        24    A     
23        29    S     
24        25    A     
24        30    S     
25        42    S     
25        26    A     
26        28    S     
31        33    A     
31        32    A     
32        37    S     
32        36    A     
33        34    A     
33        39    S     
34        35    A     
34        40    S     
35        36    A     
35        41    S     
36        38    S     
45        50    A     
45        46    A     
45        77    A     
46        47    A     
47        48    A     
47        79    A     
48        52    S     
48        49    A     
49        50    A     
50        51    S     
53        55    A     
53        54    A     
54        58    A     
55        56    A     
56        60    S     
56        57    A     
57        58    A     
58        59    S     
61        62    A     
61        63    A     
62        66    A     
63        64    A     
63        81    A     
64        68    S     
64        65    A     
65        66    A     
66        67    S     
69        70    A     
69        71    A     
70        74    A     
70        85    A     
71        83    A     
71        72    A     
72        76    S     
72        73    A     
73        74    A     
74        75    S     
77        78    A     
77        94    S     
78        93    S     
79        92    S     
79        80    A     
80        91    S     
81        96    S     
81        82    A     
82        95    S     
83        89    S     
83        84    A     
84        90    S     
85        86    A     
85        87    S     
86        88    S     
97        103   S     
97        102   A     
97        98    A     
98        99    A     
99        104   S     
99        100   A     
100       101   A     
101       102   A     
105       107   A     
105       106   A     
106       110   A     
106       111   S     
107       112   S     
107       108   A     
108       131   A     
108       109   A     
109       110   A     
110       129   A     
113       115   A     
113       114   A     
114       118   A     
114       119   S     
115       116   A     
115       120   S     
116       117   A     
117       118   A     
118       133   A     
121       123   A     
121       122   A     
122       127   S     
122       126   A     
123       128   S     
123       124   A     
124       125   A     
125       126   A     
129       136   S     
129       130   A     
130       135   S     
131       137   S     
131       132   A     
132       138   S     
133       139   S     
133       134   A     
134       140   S     
0         98    S     
0         113   S     
0         121   S     
0         105   S     
2         49    S     
11        57    S     
21        65    S     
31        73    S     
46        101   A     
53        109   A     
54        130   A     
55        132   A     
61        117   A     
62        134   A     
69        125   A     
78        102   A     
80        100   A     
82        116   A     
84        124   A     
86        126   A     
