12
Properties=species:S:1:pos:R:3 mol=T to=T xyz=T file=T pbc="F F F"
C        1.58490000      -1.78650000      -1.94470000
N        1.56070000      -1.37800000      -0.45390000
N        2.85420000      -0.61530000      -0.03410000
C        3.84290000      -0.45410000      -1.21020000
S        3.12930000      -1.22150000      -2.67010000
X        1.02440000      -2.15880000      -2.27590000
X        4.50870000      -0.11110000      -1.17020000
H        2.74190000      -0.36780000       1.04220000
C        0.69537233      -1.46423540       0.76866932
F       -0.31013216      -2.38847144       0.55511415
F        0.12207056      -0.24011290       1.06304419
F        1.46173515      -1.86908069       1.84571282
0       1     S
0       4     D
0       5     S
1       2     S
1       8     S
4       3     D
2       3     S
2       7     S
8       9     S
8       10    S
8       11    S
3       6     S
