26
mol to xyz file
C             7.8150        14.6152       4.5200    
C             9.0102        13.9189       4.9078    
C             9.0283        18.2221       4.6838    
S             7.6901        11.5572       3.9384    
C             8.5176        10.0987       4.2509    
C             9.7182        10.2587       4.9057    
C             9.9699        11.5791       5.1737    
H             6.8933        14.0726       4.4077    
H             10.3737       9.4495        5.1975    
H             10.8409       11.9147       5.7199    
X             7.2227        16.4167       4.2095    
C             7.8186        16.0266       4.4445    
C             10.1981       16.0203       4.5200    
C             9.0029        16.7166       4.9078    
C             8.9848        12.4134       4.6838    
S             10.3230       19.0783       3.9384    
C             9.4955        20.5368       4.2509    
C             8.2949        20.3768       4.9057    
C             8.0432        19.0564       5.1737    
H             11.1198       16.5629       4.4077    
H             7.6394        21.1860       5.1975    
H             7.1722        18.7208       5.7199    
X             10.7904       14.2188       4.2095    
C             10.1944       14.6089       4.4445    
H             9.9473        21.5303       3.9219    
H             8.0658        9.1052        3.9219    
0         11    A     
0         7     S     
0         1     A     
1         23    A     
1         14    S     
2         15    A     
2         18    A     
2         13    S     
3         4     A     
3         14    A     
4         25    S     
4         5     A     
5         6     A     
5         8     S     
6         9     S     
6         14    A     
10        11    S     
11        13    A     
12        19    S     
12        23    A     
12        13    A     
15        16    A     
16        24    S     
16        17    A     
17        20    S     
17        18    A     
18        21    S     
22        23    S     
