C12
  MatStudio         3D                             0

 78 90  0  0  0  0  0  0  0  0999 V2000
    3.3646   21.6434    0.0000 O   0  0  0  0  0  0  0  0  0  1
    4.6168   21.1423    0.0000 C   0  0  0  0  0  0  0  0  0  2
    5.7299   21.9209    0.0000 C   0  0  0  0  0  0  0  0  0  3
    5.5502   23.3129    0.0000 C   0  0  0  0  0  0  0  0  0  4
    4.5412   23.7169    0.0000 H   0  0  0  0  0  0  0  0  0  5
    6.6732   24.0636    0.0000 C   0  0  0  0  0  0  0  0  0  6
    6.6857   25.1507    0.0000 H   0  0  0  0  0  0  0  0  0  7
    7.8935   23.3669    0.0000 C   0  0  0  0  0  0  0  0  0  8
    9.0183   24.1195    0.0000 C   0  0  0  0  0  0  0  0  0  9
   14.8812   16.6079    0.0000 C   0  0  0  0  0  0  0  0  0 10
   12.3762   16.4626    0.0000 C   0  0  0  0  0  0  0  0  0 11
   15.0056   22.9543    0.0000 C   0  0  0  0  0  0  0  0  0 12
   15.0247   12.5597    0.0000 O   0  0  0  0  0  0  0  0  0 13
   14.8326   13.8946    0.0000 C   0  0  0  0  0  0  0  0  0 14
   13.6017   14.4693    0.0000 C   0  0  0  0  0  0  0  0  0 15
   12.4861   13.6176    0.0000 C   0  0  0  0  0  0  0  0  0 16
   12.6407   12.5419    0.0000 H   0  0  0  0  0  0  0  0  0 17
   11.2744   14.2149    0.0000 C   0  0  0  0  0  0  0  0  0 18
   10.3268   13.6821    0.0000 H   0  0  0  0  0  0  0  0  0 19
   11.2677   15.6200    0.0000 C   0  0  0  0  0  0  0  0  0 20
   10.0535   16.2178    0.0000 C   0  0  0  0  0  0  0  0  0 21
   13.6273   25.0510    0.0000 C   0  0  0  0  0  0  0  0  0 22
    8.0689   21.9856    0.0000 C   0  0  0  0  0  0  0  0  0 23
   16.0014   26.3656    0.0000 C   0  0  0  0  0  0  0  0  0 24
   16.2896   22.4156    0.0000 C   0  0  0  0  0  0  0  0  0 25
   17.0614   27.1995    0.0000 O   0  0  0  0  0  0  0  0  0 26
   16.1191   25.0123    0.0000 C   0  0  0  0  0  0  0  0  0 27
   17.4145   24.4720    0.0000 C   0  0  0  0  0  0  0  0  0 28
   18.2688   25.1437    0.0000 H   0  0  0  0  0  0  0  0  0 29
   17.5031   23.1240    0.0000 C   0  0  0  0  0  0  0  0  0 30
   18.4383   22.5697    0.0000 H   0  0  0  0  0  0  0  0  0 31
   16.3790   21.0652    0.0000 C   0  0  0  0  0  0  0  0  0 32
    6.9423   19.7436    0.0000 C   0  0  0  0  0  0  0  0  0 33
   15.0247   28.3753    0.0000 O   0  0  0  0  0  0  0  0  0 34
   14.8326   27.0404    0.0000 C   0  0  0  0  0  0  0  0  0 35
   13.6017   26.4657    0.0000 C   0  0  0  0  0  0  0  0  0 36
   12.4861   27.3174    0.0000 C   0  0  0  0  0  0  0  0  0 37
   12.6407   28.3931    0.0000 H   0  0  0  0  0  0  0  0  0 38
   11.2744   26.7201    0.0000 C   0  0  0  0  0  0  0  0  0 39
   10.3268   27.2529    0.0000 H   0  0  0  0  0  0  0  0  0 40
   11.2677   25.3150    0.0000 C   0  0  0  0  0  0  0  0  0 41
   10.0535   24.7172    0.0000 C   0  0  0  0  0  0  0  0  0 42
   13.6273   15.8840    0.0000 C   0  0  0  0  0  0  0  0  0 43
   15.0056   17.9807    0.0000 C   0  0  0  0  0  0  0  0  0 44
   17.0614   13.7355    0.0000 O   0  0  0  0  0  0  0  0  0 45
   16.0014   14.5694    0.0000 C   0  0  0  0  0  0  0  0  0 46
   16.2896   18.5194    0.0000 C   0  0  0  0  0  0  0  0  0 47
   16.3790   19.8698    0.0000 C   0  0  0  0  0  0  0  0  0 48
    6.9423   21.1914    0.0000 C   0  0  0  0  0  0  0  0  0 49
    8.0689   18.9494    0.0000 C   0  0  0  0  0  0  0  0  0 50
   16.1191   15.9227    0.0000 C   0  0  0  0  0  0  0  0  0 51
   17.4145   16.4630    0.0000 C   0  0  0  0  0  0  0  0  0 52
   18.2688   15.7913    0.0000 H   0  0  0  0  0  0  0  0  0 53
   17.5031   17.8110    0.0000 C   0  0  0  0  0  0  0  0  0 54
   18.4383   18.3653    0.0000 H   0  0  0  0  0  0  0  0  0 55
    9.0183   16.8155    0.0000 C   0  0  0  0  0  0  0  0  0 56
   14.8812   24.3271    0.0000 C   0  0  0  0  0  0  0  0  0 57
   12.3762   24.4724    0.0000 C   0  0  0  0  0  0  0  0  0 58
    3.3646   19.2916    0.0000 O   0  0  0  0  0  0  0  0  0 59
    4.6168   19.7927    0.0000 C   0  0  0  0  0  0  0  0  0 60
    5.7299   19.0141    0.0000 C   0  0  0  0  0  0  0  0  0 61
    5.5502   17.6221    0.0000 C   0  0  0  0  0  0  0  0  0 62
    4.5412   17.2181    0.0000 H   0  0  0  0  0  0  0  0  0 63
    6.6732   16.8714    0.0000 C   0  0  0  0  0  0  0  0  0 64
    6.6857   15.7843    0.0000 H   0  0  0  0  0  0  0  0  0 65
    7.8935   17.5681    0.0000 C   0  0  0  0  0  0  0  0  0 66
    2.6599   20.4675    0.0000 B   0  0  0  0  0  0  0  0  0 67
   16.3954   12.5373    0.0000 B   0  0  0  0  0  0  0  0  0 68
   16.3954   28.3977    0.0000 B   0  0  0  0  0  0  0  0  0 69
   14.1576   18.6619    0.0000 H   0  0  0  0  0  0  0  0  0 70
   12.2103   23.3974    0.0000 H   0  0  0  0  0  0  0  0  0 71
    9.0828   19.3432    0.0000 H   0  0  0  0  0  0  0  0  0 72
   12.2103   17.5376    0.0000 H   0  0  0  0  0  0  0  0  0 73
    9.0828   21.5918    0.0000 H   0  0  0  0  0  0  0  0  0 74
   14.1576   22.2731    0.0000 H   0  0  0  0  0  0  0  0  0 75
    1.9100   20.4798    0.0000 F   0  0  0  0  0  0  0  0  0  0
   16.7598   11.8817    0.0000 F   0  0  0  0  0  0  0  0  0  0
   16.7810   29.0410    0.0000 F   0  0  0  0  0  0  0  0  0  0
  1 67  1  0  0  0
  1  2  1  0  0  0
  2 60  4  0  0  0
  2  3  4  0  0  0
  3  4  4  0  0  0
  3 49  4  0  0  0
  4  6  4  0  0  0
  4  5  1  0  0  0
  6  8  4  0  0  0
  6  7  1  0  0  0
  8  9  1  0  0  0
  8 23  4  0  0  0
  9 42  3  0  0  0
 10 44  4  0  0  0
 10 43  4  0  0  0
 10 51  4  0  0  0
 11 73  1  0  0  0
 11 20  4  0  0  0
 11 43  4  0  0  0
 12 75  1  0  0  0
 12 25  4  0  0  0
 12 57  4  0  0  0
 13 14  1  0  0  0
 13 68  1  0  0  0
 14 15  4  0  0  0
 14 46  4  0  0  0
 15 43  4  0  0  0
 15 16  4  0  0  0
 16 17  1  0  0  0
 16 18  4  0  0  0
 18 20  4  0  0  0
 18 19  1  0  0  0
 20 21  1  0  0  0
 21 56  3  0  0  0
 22 36  4  0  0  0
 22 58  4  0  0  0
 22 57  4  0  0  0
 23 74  1  0  0  0
 23 49  4  0  0  0
 24 27  4  0  0  0
 24 26  1  0  0  0
 24 35  4  0  0  0
 25 30  4  0  0  0
 25 32  1  0  0  0
 26 69  1  0  0  0
 27 28  4  0  0  0
 27 57  4  0  0  0
 28 30  4  0  0  0
 28 29  1  0  0  0
 30 31  1  0  0  0
 32 48  3  0  0  0
 33 49  4  0  0  0
 33 61  4  0  0  0
 33 50  4  0  0  0
 34 69  1  0  0  0
 34 35  1  0  0  0
 35 36  4  0  0  0
 36 37  4  0  0  0
 37 39  4  0  0  0
 37 38  1  0  0  0
 39 40  1  0  0  0
 39 41  4  0  0  0
 41 58  4  0  0  0
 41 42  1  0  0  0
 44 70  1  0  0  0
 44 47  4  0  0  0
 45 68  1  0  0  0
 45 46  1  0  0  0
 46 51  4  0  0  0
 47 54  4  0  0  0
 47 48  1  0  0  0
 50 72  1  0  0  0
 50 66  4  0  0  0
 51 52  4  0  0  0
 52 54  4  0  0  0
 52 53  1  0  0  0
 54 55  1  0  0  0
 56 66  1  0  0  0
 58 71  1  0  0  0
 59 67  1  0  0  0
 59 60  1  0  0  0
 60 61  4  0  0  0
 61 62  4  0  0  0
 62 64  4  0  0  0
 62 63  1  0  0  0
 64 66  4  0  0  0
 64 65  1  0  0  0
 67 76  1  0  0  0
 68 77  1  0  0  0
 69 78  1  0  0  0
M  $3D  3
M  $3D -9  9 B3-F
M  $3D 69 78    0.7500    0.7500
M  $3D -9  9 B1-F
M  $3D 67 76    0.7500    0.7500
M  $3D -9  9 B2-F
M  $3D 68 77    0.7500    0.7500
M  END
