C13
  MatStudio         3D                             0

 84 99  0  0  0  0  0  0  0  0999 V2000
    4.6168   21.1423    0.0000 C   0  0  0  0  0  0  0  0  0  1
    5.7299   21.9209    0.0000 C   0  0  0  0  0  0  0  0  0  2
    5.5502   23.3129    0.0000 C   0  0  0  0  0  0  0  0  0  3
    6.6732   24.0636    0.0000 C   0  0  0  0  0  0  0  0  0  4
    7.8935   23.3669    0.0000 C   0  0  0  0  0  0  0  0  0  5
    9.0183   24.1195    0.0000 C   0  0  0  0  0  0  0  0  0  6
   14.8812   16.6079    0.0000 C   0  0  0  0  0  0  0  0  0  7
   12.3762   16.4626    0.0000 C   0  0  0  0  0  0  0  0  0  8
   15.0056   22.9543    0.0000 C   0  0  0  0  0  0  0  0  0  9
   14.8326   13.8946    0.0000 C   0  0  0  0  0  0  0  0  0 10
   13.6017   14.4693    0.0000 C   0  0  0  0  0  0  0  0  0 11
   12.4861   13.6176    0.0000 C   0  0  0  0  0  0  0  0  0 12
   11.2744   14.2149    0.0000 C   0  0  0  0  0  0  0  0  0 13
   11.2677   15.6200    0.0000 C   0  0  0  0  0  0  0  0  0 14
   10.0535   16.2178    0.0000 C   0  0  0  0  0  0  0  0  0 15
   13.6273   25.0510    0.0000 C   0  0  0  0  0  0  0  0  0 16
    8.0689   21.9856    0.0000 C   0  0  0  0  0  0  0  0  0 17
   16.0014   26.3656    0.0000 C   0  0  0  0  0  0  0  0  0 18
   16.2896   22.4156    0.0000 C   0  0  0  0  0  0  0  0  0 19
   16.1191   25.0123    0.0000 C   0  0  0  0  0  0  0  0  0 20
   17.4145   24.4720    0.0000 C   0  0  0  0  0  0  0  0  0 21
   17.5031   23.1240    0.0000 C   0  0  0  0  0  0  0  0  0 22
   16.3790   21.0652    0.0000 C   0  0  0  0  0  0  0  0  0 23
    6.9423   19.7436    0.0000 C   0  0  0  0  0  0  0  0  0 24
   14.8326   27.0404    0.0000 C   0  0  0  0  0  0  0  0  0 25
   13.6017   26.4657    0.0000 C   0  0  0  0  0  0  0  0  0 26
   12.4861   27.3174    0.0000 C   0  0  0  0  0  0  0  0  0 27
   11.2744   26.7201    0.0000 C   0  0  0  0  0  0  0  0  0 28
   11.2677   25.3150    0.0000 C   0  0  0  0  0  0  0  0  0 29
   10.0535   24.7172    0.0000 C   0  0  0  0  0  0  0  0  0 30
   13.6273   15.8840    0.0000 C   0  0  0  0  0  0  0  0  0 31
   15.0056   17.9807    0.0000 C   0  0  0  0  0  0  0  0  0 32
   16.0014   14.5694    0.0000 C   0  0  0  0  0  0  0  0  0 33
   16.2896   18.5194    0.0000 C   0  0  0  0  0  0  0  0  0 34
   16.3790   19.8698    0.0000 C   0  0  0  0  0  0  0  0  0 35
    6.9423   21.1914    0.0000 C   0  0  0  0  0  0  0  0  0 36
    8.0689   18.9494    0.0000 C   0  0  0  0  0  0  0  0  0 37
   16.1191   15.9227    0.0000 C   0  0  0  0  0  0  0  0  0 38
   17.4145   16.4630    0.0000 C   0  0  0  0  0  0  0  0  0 39
   17.5031   17.8110    0.0000 C   0  0  0  0  0  0  0  0  0 40
    9.0183   16.8155    0.0000 C   0  0  0  0  0  0  0  0  0 41
   14.8812   24.3271    0.0000 C   0  0  0  0  0  0  0  0  0 42
   12.3762   24.4724    0.0000 C   0  0  0  0  0  0  0  0  0 43
    4.6168   19.7927    0.0000 C   0  0  0  0  0  0  0  0  0 44
    5.7299   19.0141    0.0000 C   0  0  0  0  0  0  0  0  0 45
    5.5502   17.6221    0.0000 C   0  0  0  0  0  0  0  0  0 46
    6.6732   16.8714    0.0000 C   0  0  0  0  0  0  0  0  0 47
    7.8935   17.5681    0.0000 C   0  0  0  0  0  0  0  0  0 48
    4.4891   16.7860    0.0000 O   0  0  0  0  0  0  0  0  0 49
    4.9564   15.5185    0.0000 B   0  0  0  0  0  0  0  0  0 50
    6.3063   15.5713    0.0000 O   0  0  0  0  0  0  0  0  0 51
    4.4891   24.1490   -0.0000 O   0  0  0  0  0  0  0  0  0 52
    4.9564   25.4165   -0.0000 B   0  0  0  0  0  0  0  0  0 53
    6.3063   25.3637   -0.0000 O   0  0  0  0  0  0  0  0  0 54
   12.2925   28.6543    0.0000 O   0  0  0  0  0  0  0  0  0 55
   10.9612   28.8834    0.0000 B   0  0  0  0  0  0  0  0  0 56
   10.3320   27.6880    0.0000 O   0  0  0  0  0  0  0  0  0 57
   18.6691   24.9728   -0.0000 O   0  0  0  0  0  0  0  0  0 58
   19.5331   23.9344   -0.0000 B   0  0  0  0  0  0  0  0  0 59
   18.8125   22.7917   -0.0000 O   0  0  0  0  0  0  0  0  0 60
   18.6691   15.9622    0.0000 O   0  0  0  0  0  0  0  0  0 61
   19.5331   17.0006    0.0000 B   0  0  0  0  0  0  0  0  0 62
   18.8125   18.1433    0.0000 O   0  0  0  0  0  0  0  0  0 63
   12.2925   12.2807   -0.0000 O   0  0  0  0  0  0  0  0  0 64
   10.9612   12.0516   -0.0000 B   0  0  0  0  0  0  0  0  0 65
   10.3320   13.2470   -0.0000 O   0  0  0  0  0  0  0  0  0 66
    3.6295   21.7123   -0.0000 H   0  0  0  0  0  0  0  0  0 67
   12.2325   17.5935   -0.0000 H   0  0  0  0  0  0  0  0  0 68
   14.0980   22.2644   -0.0000 H   0  0  0  0  0  0  0  0  0 69
   14.9314   12.7589    0.0000 H   0  0  0  0  0  0  0  0  0 70
    9.1202   21.5445   -0.0000 H   0  0  0  0  0  0  0  0  0 71
   16.9356   27.0190    0.0000 H   0  0  0  0  0  0  0  0  0 72
   14.8326   28.1804    0.0000 H   0  0  0  0  0  0  0  0  0 73
   14.0738   18.6375   -0.0000 H   0  0  0  0  0  0  0  0  0 74
   16.9887   13.9994    0.0000 H   0  0  0  0  0  0  0  0  0 75
    9.1036   19.4280   -0.0000 H   0  0  0  0  0  0  0  0  0 76
   12.2733   23.3370   -0.0000 H   0  0  0  0  0  0  0  0  0 77
    3.6295   19.2227    0.0000 H   0  0  0  0  0  0  0  0  0 78
    4.4767   14.9420    0.0000 F   0  0  0  0  0  0  0  0  0  0
    4.4767   25.9930   -0.0000 F   0  0  0  0  0  0  0  0  0  0
   10.7018   29.5871    0.0000 F   0  0  0  0  0  0  0  0  0  0
   20.2723   24.0615   -0.0000 F   0  0  0  0  0  0  0  0  0  0
   20.2723   16.8735    0.0000 F   0  0  0  0  0  0  0  0  0  0
   10.7018   11.3479   -0.0000 F   0  0  0  0  0  0  0  0  0  0
  1 44  4  0  0  0
  1 67  1  0  0  0
  1  2  4  0  0  0
  2  3  4  0  0  0
  2 36  4  0  0  0
  3  4  4  0  0  0
  3 52  1  0  0  0
  4  5  4  0  0  0
  4 54  1  0  0  0
  5  6  1  0  0  0
  5 17  4  0  0  0
  6 30  3  0  0  0
  7 32  4  0  0  0
  7 31  4  0  0  0
  7 38  4  0  0  0
  8 68  1  0  0  0
  8 14  4  0  0  0
  8 31  4  0  0  0
  9 69  1  0  0  0
  9 19  4  0  0  0
  9 42  4  0  0  0
 10 70  1  0  0  0
 10 11  4  0  0  0
 10 33  4  0  0  0
 11 31  4  0  0  0
 11 12  4  0  0  0
 12 13  4  0  0  0
 12 64  1  0  0  0
 13 14  4  0  0  0
 13 66  1  0  0  0
 14 15  1  0  0  0
 15 41  3  0  0  0
 16 26  4  0  0  0
 16 43  4  0  0  0
 16 42  4  0  0  0
 17 71  1  0  0  0
 17 36  4  0  0  0
 18 20  4  0  0  0
 18 72  1  0  0  0
 18 25  4  0  0  0
 19 22  4  0  0  0
 19 23  1  0  0  0
 20 21  4  0  0  0
 20 42  4  0  0  0
 21 22  4  0  0  0
 21 58  1  0  0  0
 22 60  1  0  0  0
 23 35  3  0  0  0
 24 36  4  0  0  0
 24 45  4  0  0  0
 24 37  4  0  0  0
 25 73  1  0  0  0
 25 26  4  0  0  0
 26 27  4  0  0  0
 27 28  4  0  0  0
 27 55  1  0  0  0
 28 57  1  0  0  0
 28 29  4  0  0  0
 29 43  4  0  0  0
 29 30  1  0  0  0
 32 74  1  0  0  0
 32 34  4  0  0  0
 33 38  4  0  0  0
 33 75  1  0  0  0
 34 40  4  0  0  0
 34 35  1  0  0  0
 37 76  1  0  0  0
 37 48  4  0  0  0
 38 39  4  0  0  0
 39 61  1  0  0  0
 39 40  4  0  0  0
 40 63  1  0  0  0
 41 48  1  0  0  0
 43 77  1  0  0  0
 44 78  1  0  0  0
 44 45  4  0  0  0
 45 46  4  0  0  0
 46 47  4  0  0  0
 46 49  1  0  0  0
 47 48  4  0  0  0
 47 51  1  0  0  0
 49 50  1  0  0  0
 50 51  1  0  0  0
 52 53  1  0  0  0
 53 54  1  0  0  0
 55 56  1  0  0  0
 56 57  1  0  0  0
 58 59  1  0  0  0
 59 60  1  0  0  0
 61 62  1  0  0  0
 62 63  1  0  0  0
 64 65  1  0  0  0
 65 66  1  0  0  0
 50 79  1  0  0  0
 53 80  1  0  0  0
 56 81  1  0  0  0
 59 82  1  0  0  0
 62 83  1  0  0  0
 65 84  1  0  0  0
M  $3D  6
M  $3D -9  9 B3-F
M  $3D 56 81    0.7500    0.7500
M  $3D -9  9 B4-F
M  $3D 59 82    0.7500    0.7500
M  $3D -9  9 B5-F
M  $3D 62 83    0.7500    0.7500
M  $3D -9  9 B6-F
M  $3D 65 84    0.7500    0.7500
M  $3D -9  9 B1-F
M  $3D 50 79    0.7500    0.7500
M  $3D -9  9 B2-F
M  $3D 53 80    0.7500    0.7500
M  END
