C16
  MatStudio         3D                             0

 23 24  0  0  0  0  0  0  0  0999 V2000
    6.9813    7.6968   -0.0003 Si  0  0  0  0  0  0  0  0  0  1
    6.9813    7.6968    3.5638 Si  0  0  0  0  0  0  0  0  0  2
    6.8631    8.2840   -0.4517 F   0  0  0  0  0  0  0  0  0  0
    7.1370    7.1035   -0.4319 F   0  0  0  0  0  0  0  0  0  0
    5.6630    7.4316    0.7929 O   0  0  0  0  0  0  0  0  0  3
    8.2995    7.9620    0.7929 O   0  0  0  0  0  0  0  0  0  4
    7.2464    9.0150    2.7706 O   0  0  0  0  0  0  0  0  0  5
    6.7161    6.3785    2.7706 O   0  0  0  0  0  0  0  0  0  6
    7.2464    6.3785    6.3348 O   0  0  0  0  0  0  0  0  0  7
    6.7161    9.0150    6.3348 O   0  0  0  0  0  0  0  0  0  8
    5.6630    7.9620    4.3570 O   0  0  0  0  0  0  0  0  0  9
    8.2995    7.4316    4.3570 O   0  0  0  0  0  0  0  0  0 10
    5.6855    6.4011    1.7817 B   0  0  0  0  0  0  0  0  0 11
    8.2770    8.9925    1.7817 B   0  0  0  0  0  0  0  0  0 12
    8.2770    6.4011    5.3459 B   0  0  0  0  0  0  0  0  0 13
    5.6855    8.9925    5.3459 B   0  0  0  0  0  0  0  0  0 14
    5.1556    5.8704    1.7824 F   0  0  0  0  0  0  0  0  0  0
    8.8069    9.5232    1.7824 F   0  0  0  0  0  0  0  0  0  0
    8.8077    5.8711    5.3452 F   0  0  0  0  0  0  0  0  0  0
    5.1548    9.5225    5.3452 F   0  0  0  0  0  0  0  0  0  0
    6.9813    7.6968    7.1280 Si  0  0  0  0  0  0  0  0  0 15
    7.5685    7.8149    7.5794 F   0  0  0  0  0  0  0  0  0  0
    6.3739    7.6110    7.5595 F   0  0  0  0  0  0  0  0  0  0
  1  3  1  0  0  0
  1  4  1  0  0  0
 13 17  1  0  0  0
 14 18  1  0  0  0
 15 19  1  0  0  0
 16 20  1  0  0  0
 21 22  1  0  0  0
 21 23  1  0  0  0
  1  5  1  0  0  0
  1  6  1  0  0  0
  2  7  1  0  0  0
  2  8  1  0  0  0
  2 11  1  0  0  0
  2 12  1  0  0  0
  5 13  1  0  0  0
  6 14  1  0  0  0
  7 14  1  0  0  0
  8 13  1  0  0  0
  9 21  1  0  0  0
  9 15  1  0  0  0
 10 21  1  0  0  0
 10 16  1  0  0  0
 11 16  1  0  0  0
 12 15  1  0  0  0
M  $3D  8
M  $3D -9  9 Si1-F
M  $3D  1  4    0.7500    0.7500
M  $3D -9  9 F-Si1
M  $3D  3  1    0.7500    0.7500
M  $3D -9  9 F-B6
M  $3D 20 16    0.7500    0.7500
M  $3D -9  9 B5-F
M  $3D 15 19    0.7500    0.7500
M  $3D -9  9 B4-F
M  $3D 14 18    0.7500    0.7500
M  $3D -9  9 B3-F
M  $3D 13 17    0.7500    0.7500
M  $3D -9  9 Si2-F
M  $3D 21 23    0.7500    0.7500
M  $3D -9  9 F-Si2
M  $3D 22 21    0.7500    0.7500
M  END
