C19
  MatStudio         3D                             0

 30 37  0  0  0  0  0  0  0  0999 V2000
   -1.8516    1.2638    0.4815 C   0  0  0  0  0  0  0  0  0  1
   -1.0810    0.0808    0.6122 C   0  0  0  0  0  0  0  0  0  2
    0.2934    0.1806    0.4642 C   0  0  0  0  0  0  0  0  0  3
    0.9139    1.3871    0.1973 C   0  0  0  0  0  0  0  0  0  4
    0.1969    2.5654    0.0624 C   0  0  0  0  0  0  0  0  0  5
   -1.2125    2.5064    0.2066 C   0  0  0  0  0  0  0  0  0  6
    2.2884    1.4869    0.0501 C   0  0  0  0  0  0  0  0  0  7
    3.0590    0.3038    0.1816 C   0  0  0  0  0  0  0  0  0  8
    2.4198   -0.9388    0.4566 C   0  0  0  0  0  0  0  0  0  9
    1.0104   -0.9976    0.5999 C   0  0  0  0  0  0  0  0  0 10
    1.2114    3.4889   -0.1925 C   0  0  0  0  0  0  0  0  0 11
    2.4503    2.8501   -0.1998 C   0  0  0  0  0  0  0  0  0 12
   -1.2427   -1.2822    0.8633 C   0  0  0  0  0  0  0  0  0 13
   -0.0038   -1.9210    0.8560 C   0  0  0  0  0  0  0  0  0 14
   -3.1866    1.4309    0.5803 O   0  0  0  0  0  0  0  0  0 15
   -3.3863    2.8417    0.3566 B   0  0  0  0  0  0  0  0  0 16
   -2.1234    3.4980    0.1230 O   0  0  0  0  0  0  0  0  0 17
   -0.1209   -3.2410    1.0960 O   0  0  0  0  0  0  0  0  0 18
   -1.5495   -3.4022    1.2600 B   0  0  0  0  0  0  0  0  0 19
   -2.2480   -2.1441    1.1085 O   0  0  0  0  0  0  0  0  0 20
    3.3309   -1.9299    0.5422 O   0  0  0  0  0  0  0  0  0 21
    4.5940   -1.2735    0.3099 B   0  0  0  0  0  0  0  0  0 22
    4.3941    0.1371    0.0848 O   0  0  0  0  0  0  0  0  0 23
    3.4557    3.7127   -0.4428 O   0  0  0  0  0  0  0  0  0 24
    2.7576    4.9711   -0.5931 B   0  0  0  0  0  0  0  0  0 25
    1.3290    4.8094   -0.4304 O   0  0  0  0  0  0  0  0  0 26
   -4.0786    3.1297    0.3733 F   0  0  0  0  0  0  0  0  0  0
   -1.8362   -4.0799    1.4047 F   0  0  0  0  0  0  0  0  0  0
    5.2302   -1.6706    0.3188 F   0  0  0  0  0  0  0  0  0  0
    3.1424    5.5985   -0.7372 F   0  0  0  0  0  0  0  0  0  0
  1 15  1  0  0  0
  1  2  4  0  0  0
  1  6  4  0  0  0
  2  3  4  0  0  0
  2 13  4  0  0  0
  3  4  4  0  0  0
  3 10  4  0  0  0
  4  7  4  0  0  0
  4  5  4  0  0  0
  5  6  4  0  0  0
  5 11  4  0  0  0
  6 17  1  0  0  0
  7  8  4  0  0  0
  7 12  4  0  0  0
  8 23  1  0  0  0
  8  9  4  0  0  0
  9 10  4  0  0  0
  9 21  1  0  0  0
 10 14  4  0  0  0
 11 12  4  0  0  0
 11 26  1  0  0  0
 12 24  1  0  0  0
 13 14  4  0  0  0
 13 20  1  0  0  0
 14 18  1  0  0  0
 15 16  1  0  0  0
 16 17  1  0  0  0
 18 19  1  0  0  0
 19 20  1  0  0  0
 21 22  1  0  0  0
 22 23  1  0  0  0
 24 25  1  0  0  0
 25 26  1  0  0  0
 16 27  1  0  0  0
 19 28  1  0  0  0
 22 29  1  0  0  0
 25 30  1  0  0  0
M  $3D  4
M  $3D -9  9 B1-F
M  $3D 16 27    0.7500    0.7500
M  $3D -9  9 B4-F
M  $3D 25 30    0.7500    0.7500
M  $3D -9  9 B3-F
M  $3D 22 29    0.7500    0.7500
M  $3D -9  9 B2-F
M  $3D 19 28    0.7500    0.7500
M  END
