C2
  MatStudio         3D                             0

 14 16  0  0  0  0  0  0  0  0999 V2000
    4.4882    7.7491    1.6925 N   0  0  0  0  0  0  0  0  0  1
    5.9178   10.2746    1.6925 N   0  0  0  0  0  0  0  0  0  2
    5.8665    7.8337    1.6925 C   0  0  0  0  0  0  0  0  0  3
    4.5395   10.1900    1.6925 C   0  0  0  0  0  0  0  0  0  4
    6.6789    6.7417    1.6925 O   0  0  0  0  0  0  0  0  0  5
    3.7271   11.2820    1.6925 O   0  0  0  0  0  0  0  0  0  6
    3.8432    8.9792    1.6925 C   0  0  0  0  0  0  0  0  0  7
    6.5628    9.0445    1.6925 C   0  0  0  0  0  0  0  0  0  8
    2.4934    9.1543    1.6925 O   0  0  0  0  0  0  0  0  0  9
    7.9126    8.8694    1.6925 O   0  0  0  0  0  0  0  0  0 10
    7.9432    7.4300    1.6925 B   0  0  0  0  0  0  0  0  0 11
    2.4628   10.5937    1.6925 B   0  0  0  0  0  0  0  0  0 12
    8.5831    7.0389    1.6925 F   0  0  0  0  0  0  0  0  0  0
    1.8229   10.9848    1.6925 F   0  0  0  0  0  0  0  0  0  0
  1  3  4  0  0  0
  1  7  4  0  0  0
  2  8  4  0  0  0
  2  4  4  0  0  0
  3  8  4  0  0  0
  3  5  1  0  0  0
  4  7  4  0  0  0
  4  6  1  0  0  0
  5 11  1  0  0  0
  6 12  1  0  0  0
  7  9  1  0  0  0
  8 10  1  0  0  0
  9 12  1  0  0  0
 10 11  1  0  0  0
 11 13  1  0  0  0
 12 14  1  0  0  0
M  $3D  2
M  $3D -9  9 B2-F
M  $3D 12 14    0.7500    0.7500
M  $3D -9  9 B1-F
M  $3D 11 13    0.7500    0.7500
M  END
