C3
  MatStudio         3D                             0

 16 18  0  0  0  0  0  0  0  0999 V2000
    4.4277    7.6590    1.6925 C   0  0  0  0  0  0  0  0  0  1
    5.9780   10.3641    1.6928 C   0  0  0  0  0  0  0  0  0  2
    5.9671    7.7099    1.6926 C   0  0  0  0  0  0  0  0  0  3
    4.4386   10.3132    1.6927 C   0  0  0  0  0  0  0  0  0  4
    6.9020    6.5433    1.6926 O   0  0  0  0  0  0  0  0  0  5
    3.5034   11.4796    1.6929 O   0  0  0  0  0  0  0  0  0  6
    3.6933    9.0128    1.6925 C   0  0  0  0  0  0  0  0  0  7
    6.7124    9.0102    1.6925 C   0  0  0  0  0  0  0  0  0  8
    2.2141    9.2300    1.6924 O   0  0  0  0  0  0  0  0  0  9
    8.1916    8.7928    1.6923 O   0  0  0  0  0  0  0  0  0 10
    8.1771    7.3067    1.6924 B   0  0  0  0  0  0  0  0  0 11
    2.2284   10.7160    1.6927 B   0  0  0  0  0  0  0  0  0 12
    3.6769    6.3486    1.6926 O   0  0  0  0  0  0  0  0  0 13
    6.7288   11.6745    1.6933 O   0  0  0  0  0  0  0  0  0 14
    8.8325    6.9421    1.6923 F   0  0  0  0  0  0  0  0  0  0
    1.5730   11.0806    1.6928 F   0  0  0  0  0  0  0  0  0  0
  1  3  1  0  0  0
  1  7  1  0  0  0
  1 13  2  0  0  0
  2  8  1  0  0  0
  2  4  1  0  0  0
  2 14  2  0  0  0
  3  8  2  0  0  0
  3  5  1  0  0  0
  4  7  2  0  0  0
  4  6  1  0  0  0
  5 11  1  0  0  0
  6 12  1  0  0  0
  7  9  1  0  0  0
  8 10  1  0  0  0
  9 12  1  0  0  0
 10 11  1  0  0  0
 11 15  1  0  0  0
 12 16  1  0  0  0
M  $3D  2
M  $3D -9  9 B2-F
M  $3D 12 16    0.7500    0.7500
M  $3D -9  9 B1-F
M  $3D 11 15    0.7500    0.7500
M  END
