C31
  MatStudio         3D                             0

  8  8  0  0  0  0  0  0  0  0999 V2000
   -1.2024    1.3898   -0.0455 C   0  0  0  0  0  0  0  0  0  1
   -0.2094    0.4353   -0.1298 C   0  0  0  0  0  0  0  0  0  2
    0.7474    1.4157    0.0348 C   0  0  0  0  0  0  0  0  0  3
   -0.2454    2.3701    0.1190 C   0  0  0  0  0  0  0  0  0  4
   -1.9517    1.3800   -0.0763 F   0  0  0  0  0  0  0  0  0  0
   -0.1954   -0.3085   -0.2256 F   0  0  0  0  0  0  0  0  0  0
    1.4967    1.4260    0.0656 F   0  0  0  0  0  0  0  0  0  0
   -0.2590    3.1139    0.2147 F   0  0  0  0  0  0  0  0  0  0
  1  2  4  0  0  0
  1  4  4  0  0  0
  2  3  4  0  0  0
  3  4  4  0  0  0
  1  5  1  0  0  0
  2  6  1  0  0  0
  3  7  1  0  0  0
  4  8  1  0  0  0
M  $3D  4
M  $3D -9  9 C4-F
M  $3D  4  8    0.7500    0.7500
M  $3D -9  9 C3-F
M  $3D  3  7    0.7500    0.7500
M  $3D -9  9 C2-F
M  $3D  2  6    0.7500    0.7500
M  $3D -9  9 C1-F
M  $3D  1  5    0.7500    0.7500
M  END
