C37
  MatStudio         3D                             0

  5  4  0  0  0  0  0  0  0  0999 V2000
   16.8562    9.0498   12.2396 F   0  0  0  0  0  0  0  0  0  2
   17.0420    7.8993   12.2396 F   0  0  0  0  0  0  0  0  0  4
   16.3738    8.3817   13.1840 F   0  0  0  0  0  0  0  0  0  6
   17.5244    8.5674   13.1840 F   0  0  0  0  0  0  0  0  0  8
   16.9491    8.4746   12.7118 C   0  0  0  0  0  0  0  0  0  9
  1  5  1  0  0  0
  2  5  1  0  0  0
  3  5  1  0  0  0
  4  5  1  0  0  0
M  $3D  4
M  $3D -9  9 C9-C2
M  $3D  5  1    0.7500    0.7500
M  $3D -9  9 C9-C8
M  $3D  5  4    0.7500    0.7500
M  $3D -9  9 C9-C6
M  $3D  5  3    0.7500    0.7500
M  $3D -9  9 C9-C4
M  $3D  5  2    0.7500    0.7500
M  END
