C39
  MatStudio         3D                             0

  4  3  0  0  0  0  0  0  0  0999 V2000
    6.0187    6.5490    5.4884 F   0  0  0  0  0  0  0  0  0  7
    5.4884    6.0187    6.5490 F   0  0  0  0  0  0  0  0  0  8
    6.5490    5.4884    6.0187 F   0  0  0  0  0  0  0  0  0  9
    6.0187    6.0187    6.0187 N   0  0  0  0  0  0  0  0  0 10
  1  4  1  0  0  0
  2  4  1  0  0  0
  3  4  1  0  0  0
M  $3D  3
M  $3D -9  9 N1-C7
M  $3D  4  1    0.7500    0.7500
M  $3D -9  9 N1-C8
M  $3D  4  2    0.7500    0.7500
M  $3D -9  9 N1-C9
M  $3D  4  3    0.7500    0.7500
M  END
