C5
  MatStudio         3D                             0

 28 33  0  0  0  0  0  0  0  0999 V2000
   -4.0882    1.0599    0.0000 C   0  0  0  0  0  0  0  0  0  1
   -3.3182   -0.2738    0.0000 C   0  0  0  0  0  0  0  0  0  2
   -1.7782   -0.2738    0.0000 C   0  0  0  0  0  0  0  0  0  3
   -1.0082    1.0599    0.0000 C   0  0  0  0  0  0  0  0  0  4
   -1.7782    2.3936    0.0000 C   0  0  0  0  0  0  0  0  0  5
   -3.3182    2.3936    0.0000 C   0  0  0  0  0  0  0  0  0  6
    0.5411    1.0415   -0.0001 C   0  0  0  0  0  0  0  0  0  7
    1.3018   -0.2738   -0.0000 O   0  0  0  0  0  0  0  0  0  8
    0.5318   -1.6075   -0.0000 C   0  0  0  0  0  0  0  0  0  9
   -1.0082   -1.6075   -0.0000 C   0  0  0  0  0  0  0  0  0 10
   -1.7782   -2.9411   -0.0000 C   0  0  0  0  0  0  0  0  0 11
   -3.3276   -2.9227    0.0001 C   0  0  0  0  0  0  0  0  0 12
   -4.0882   -1.6075   -0.0000 O   0  0  0  0  0  0  0  0  0 13
    1.3018   -2.9411   -0.0000 C   0  0  0  0  0  0  0  0  0 14
    0.5318   -4.2748   -0.0000 C   0  0  0  0  0  0  0  0  0 15
   -1.0082   -4.2748   -0.0000 C   0  0  0  0  0  0  0  0  0 16
   -1.4841   -5.7394   -0.0000 O   0  0  0  0  0  0  0  0  0 17
   -0.2382   -6.6446   -0.0000 B   0  0  0  0  0  0  0  0  0 18
    1.0077   -5.7394   -0.0000 O   0  0  0  0  0  0  0  0  0 19
   -3.7941    3.8582   -0.0000 O   0  0  0  0  0  0  0  0  0 20
   -2.5482    4.7634   -0.0000 B   0  0  0  0  0  0  0  0  0 21
   -1.3023    3.8582   -0.0000 O   0  0  0  0  0  0  0  0  0 22
   -5.2282    1.0599    0.0000 H   0  0  0  0  0  0  0  0  0 23
    1.3024    2.3420   -0.0001 O   0  0  0  0  0  0  0  0  0 24
   -4.0889   -4.2232    0.0004 O   0  0  0  0  0  0  0  0  0 25
    2.4418   -2.9411   -0.0000 H   0  0  0  0  0  0  0  0  0 26
   -0.3166   -7.3905   -0.0000 F   0  0  0  0  0  0  0  0  0  0
   -2.6266    5.5093   -0.0000 F   0  0  0  0  0  0  0  0  0  0
  1 23  1  0  0  0
  1  2  4  0  0  0
  1  6  4  0  0  0
  2  3  4  0  0  0
  2 13  1  0  0  0
  3  4  4  0  0  0
  3 10  1  0  0  0
  4  7  1  0  0  0
  4  5  4  0  0  0
  5  6  4  0  0  0
  5 22  1  0  0  0
  6 20  1  0  0  0
  7  8  1  0  0  0
  7 24  2  0  0  0
  8  9  1  0  0  0
  9 10  4  0  0  0
  9 14  4  0  0  0
 10 11  4  0  0  0
 11 16  4  0  0  0
 11 12  1  0  0  0
 12 25  2  0  0  0
 12 13  1  0  0  0
 14 26  1  0  0  0
 14 15  4  0  0  0
 15 16  4  0  0  0
 15 19  1  0  0  0
 16 17  1  0  0  0
 17 18  1  0  0  0
 18 19  1  0  0  0
 20 21  1  0  0  0
 21 22  1  0  0  0
 18 27  1  0  0  0
 21 28  1  0  0  0
M  $3D  2
M  $3D -9  9 B2-F
M  $3D 21 28    0.7500    0.7500
M  $3D -9  9 F-B1
M  $3D 27 18    0.7500    0.7500
M  END
