C52
  MatStudio         3D                             0

 21 21  0  0  0  0  0  0  0  0999 V2000
   -1.4004    0.2801    0.5152 C   0  0  0  0  0  0  0  0  0  1
   -1.1711   -1.0802   -0.1672 C   0  0  0  0  0  0  0  0  0  2
    0.2228   -1.4417   -0.7143 C   0  0  0  0  0  0  0  0  0  3
    1.3842   -0.4389   -0.5936 C   0  0  0  0  0  0  0  0  0  4
    1.1532    0.9241    0.0824 C   0  0  0  0  0  0  0  0  0  5
   -0.2384    1.2838    0.6363 C   0  0  0  0  0  0  0  0  0  6
   -2.7881    0.6321    1.0842 C   0  0  0  0  0  0  0  0  0  7
   -2.0302   -1.8241   -0.2596 H   0  0  0  0  0  0  0  0  0  8
    0.4588   -2.8138   -1.3688 C   0  0  0  0  0  0  0  0  0  9
    2.4153   -0.7080   -0.9986 H   0  0  0  0  0  0  0  0  0 10
    2.3157    1.9247    0.2160 C   0  0  0  0  0  0  0  0  0 11
   -0.4075    2.2923    1.1400 H   0  0  0  0  0  0  0  0  0 12
   -3.9188   -0.3641    0.9841 N   0  0  0  0  0  0  0  0  0 13
    1.8336   -3.1855   -1.8700 N   0  0  0  0  0  0  0  0  0 14
    2.0918    3.2508    0.9020 N   0  0  0  0  0  0  0  0  0 15
   -2.9599    1.6413    1.5860 H   0  0  0  0  0  0  0  0  0 16
   -0.4025   -3.5539   -1.4667 H   0  0  0  0  0  0  0  0  0 17
    3.3454    1.6612   -0.1961 H   0  0  0  0  0  0  0  0  0 18
   -4.5918   -0.1980    1.2706 F   0  0  0  0  0  0  0  0  0  0
    1.9520   -3.8620   -2.1713 F   0  0  0  0  0  0  0  0  0  0
    2.6608    3.7331    0.9811 F   0  0  0  0  0  0  0  0  0  0
  1  6  4  0  0  0
  1  7  1  0  0  0
  1  2  4  0  0  0
  2  8  1  0  0  0
  2  3  4  0  0  0
  3  4  4  0  0  0
  3  9  1  0  0  0
  4 10  1  0  0  0
  4  5  4  0  0  0
  5  6  4  0  0  0
  5 11  1  0  0  0
  6 12  1  0  0  0
  7 16  1  0  0  0
  7 13  2  0  0  0
  9 17  1  0  0  0
  9 14  2  0  0  0
 11 15  2  0  0  0
 11 18  1  0  0  0
 13 19  1  0  0  0
 14 20  1  0  0  0
 15 21  1  0  0  0
M  $3D  3
M  $3D -9  9 N1-F
M  $3D 13 19    0.7500    0.7500
M  $3D -9  9 N2-F
M  $3D 14 20    0.7500    0.7500
M  $3D -9  9 N3-F
M  $3D 15 21    0.7500    0.7500
M  END
