C63
  MatStudio         3D                             0

 12 14  0  0  0  0  0  0  0  0999 V2000
   -1.9593    0.5408    0.0000 C   0  0  0  0  0  0  0  0  0  1
   -0.8704   -0.5482    0.0000 C   0  0  0  0  0  0  0  0  0  2
    0.2186    0.5408    0.0000 C   0  0  0  0  0  0  0  0  0  3
   -0.8704    1.6297    0.0000 C   0  0  0  0  0  0  0  0  0  4
   -3.3315   -0.1584    0.0000 O   0  0  0  0  0  0  0  0  0  5
   -3.0906   -1.6794    0.0000 B   0  0  0  0  0  0  0  0  0  6
   -1.5695   -1.9203    0.0000 O   0  0  0  0  0  0  0  0  0  7
   -0.1712    3.0019   -0.0000 O   0  0  0  0  0  0  0  0  0  8
    1.3498    2.7610   -0.0000 B   0  0  0  0  0  0  0  0  0  9
    1.5907    1.2399   -0.0000 O   0  0  0  0  0  0  0  0  0 10
   -3.6734   -2.1514    0.0000 F   0  0  0  0  0  0  0  0  0  0
    1.8218    3.3438   -0.0000 F   0  0  0  0  0  0  0  0  0  0
  1  4  4  0  0  0
  1  5  1  0  0  0
  1  2  4  0  0  0
  2  3  4  0  0  0
  2  7  1  0  0  0
  3 10  1  0  0  0
  3  4  4  0  0  0
  4  8  1  0  0  0
  5  6  1  0  0  0
  6  7  1  0  0  0
  8  9  1  0  0  0
  9 10  1  0  0  0
  6 11  1  0  0  0
  9 12  1  0  0  0
M  $3D  2
M  $3D -9  9 B1-F
M  $3D  6 11    0.7500    0.7500
M  $3D -9  9 B2-F
M  $3D  9 12    0.7500    0.7500
M  END
