C64
  MatStudio         3D                             0

 44 48  0  0  0  0  0  0  0  0999 V2000
   -1.7468    1.9910    0.3891 N   0  0  0  0  0  0  0  0  0  1
   -0.9244    0.7396    0.3816 C   0  0  0  0  0  0  0  0  0  2
    0.4642    1.0943   -0.1021 C   0  0  0  0  0  0  0  0  0  3
    0.5348    2.5751   -0.4112 N   0  0  0  0  0  0  0  0  0  4
   -0.8543    3.1142   -0.0920 C   0  0  0  0  0  0  0  0  0  5
    1.5712    0.0393   -0.1947 C   0  0  0  0  0  0  0  0  0  6
    1.2234   -1.4101    0.2246 C   0  0  0  0  0  0  0  0  0  7
   -0.2092   -1.7717    0.7108 C   0  0  0  0  0  0  0  0  0  8
   -1.3059   -0.6841    0.7953 C   0  0  0  0  0  0  0  0  0  9
   -1.2737    4.5911   -0.1879 C   0  0  0  0  0  0  0  0  0 10
    2.3051   -2.5038    0.1664 C   0  0  0  0  0  0  0  0  0 11
    1.9707   -3.9153    0.5861 N   0  0  0  0  0  0  0  0  0 12
    2.6179    0.3139   -0.5536 H   0  0  0  0  0  0  0  0  0 13
   -0.4506   -2.8443    1.0123 H   0  0  0  0  0  0  0  0  0 14
   -2.3583   -0.9328    1.1563 H   0  0  0  0  0  0  0  0  0 15
   -0.2729    5.6446   -0.6953 C   0  0  0  0  0  0  0  0  0 16
   -0.6772    7.1289   -0.7374 C   0  0  0  0  0  0  0  0  0 17
   -2.0761    7.5594   -0.2595 C   0  0  0  0  0  0  0  0  0 18
   -3.0885    6.5018    0.2169 C   0  0  0  0  0  0  0  0  0 19
   -2.6876    5.0160    0.2492 C   0  0  0  0  0  0  0  0  0 20
   -2.4506    9.0514   -0.2402 C   0  0  0  0  0  0  0  0  0 21
   -1.5384   10.1747   -0.6841 N   0  0  0  0  0  0  0  0  0 22
   -2.2699   11.4584   -0.4421 C   0  0  0  0  0  0  0  0  0 23
   -3.6252   11.1227    0.1424 C   0  0  0  0  0  0  0  0  0 24
   -3.7686    9.6203    0.2732 N   0  0  0  0  0  0  0  0  0 25
   -4.6167   12.2210    0.5401 C   0  0  0  0  0  0  0  0  0 26
   -4.1876   13.6932    0.3236 C   0  0  0  0  0  0  0  0  0 27
   -2.7978   14.0316   -0.2886 C   0  0  0  0  0  0  0  0  0 28
   -1.8169   12.9010   -0.6791 C   0  0  0  0  0  0  0  0  0 29
   -5.1413   14.8347    0.7209 C   0  0  0  0  0  0  0  0  0 30
   -4.7187   16.2705    0.5207 N   0  0  0  0  0  0  0  0  0 31
    0.7693    5.3270   -1.0308 H   0  0  0  0  0  0  0  0  0 32
    0.0630    7.9112   -1.1109 H   0  0  0  0  0  0  0  0  0 33
   -4.1303    6.8195    0.5537 H   0  0  0  0  0  0  0  0  0 34
   -3.4328    4.2315    0.6082 H   0  0  0  0  0  0  0  0  0 35
   -5.6332   11.9631    0.9872 H   0  0  0  0  0  0  0  0  0 36
   -2.4988   15.1203   -0.4463 H   0  0  0  0  0  0  0  0  0 37
   -0.7926   13.1337   -1.1220 H   0  0  0  0  0  0  0  0  0 38
   -2.8058    2.0819    0.7090 H   0  0  0  0  0  0  0  0  0 39
   -0.5154   10.0669   -1.1015 H   0  0  0  0  0  0  0  0  0 40
    3.3576   -2.2475   -0.1887 H   0  0  0  0  0  0  0  0  0 41
   -6.1628   14.5964    1.1678 H   0  0  0  0  0  0  0  0  0 42
    2.4973   -4.4488    0.5640 F   0  0  0  0  0  0  0  0  0  0
   -5.1784   16.8292    0.7181 F   0  0  0  0  0  0  0  0  0  0
  1 39  1  0  0  0
  1  2  4  0  0  0
  1  5  4  0  0  0
  2  9  4  0  0  0
  2  3  4  0  0  0
  3  6  4  0  0  0
  3  4  4  0  0  0
  4  5  4  0  0  0
  5 10  1  0  0  0
  6 13  1  0  0  0
  6  7  4  0  0  0
  7  8  4  0  0  0
  7 11  1  0  0  0
  8  9  4  0  0  0
  8 14  1  0  0  0
  9 15  1  0  0  0
 10 16  4  0  0  0
 10 20  4  0  0  0
 11 41  1  0  0  0
 11 12  2  0  0  0
 16 32  1  0  0  0
 16 17  4  0  0  0
 17 18  4  0  0  0
 17 33  1  0  0  0
 18 21  1  0  0  0
 18 19  4  0  0  0
 19 34  1  0  0  0
 19 20  4  0  0  0
 20 35  1  0  0  0
 21 22  4  0  0  0
 21 25  4  0  0  0
 22 40  1  0  0  0
 22 23  4  0  0  0
 23 29  4  0  0  0
 23 24  4  0  0  0
 24 26  4  0  0  0
 24 25  4  0  0  0
 26 36  1  0  0  0
 26 27  4  0  0  0
 27 30  1  0  0  0
 27 28  4  0  0  0
 28 29  4  0  0  0
 28 37  1  0  0  0
 29 38  1  0  0  0
 30 42  1  0  0  0
 30 31  2  0  0  0
 12 43  1  0  0  0
 31 44  1  0  0  0
M  $3D  4
M  $3D -9  9 N6-F
M  $3D 31 44    0.7500    0.7500
M  $3D -9  9 N3-F
M  $3D 12 43    0.7500    0.7500
M  $3D-15 15 H13-C9-N3-F
M  $3D 41 11 12 43    0.0000  360.0000
M  $3D-15 15 C6-C5-C9-H13
M  $3D  8  7 11 41    0.0000  360.0000
M  END
