L10
  MatStudio         3D                             0

 36 38  0  0  0  0  0  0  0  0999 V2000
   19.2665   29.0191    1.6835 F   0  0  0  0  0  0  0  0  0  1
   19.2665   29.7691    1.6835 C   0  0  0  0  0  0  0  0  0  4
   18.0663   30.5329    1.6835 C   0  0  0  0  0  0  0  0  0  5
   18.0663   31.9709    1.6835 C   0  0  0  0  0  0  0  0  0  6
   20.4667   30.5329    1.6835 C   0  0  0  0  0  0  0  0  0  7
   20.4667   31.9709    1.6835 C   0  0  0  0  0  0  0  0  0  8
   19.2665   32.7326    1.6835 C   0  0  0  0  0  0  0  0  0  9
   19.2665   37.0516    1.6835 C   0  0  0  0  0  0  0  0  0 10
   19.2665   34.2610    1.6835 C   0  0  0  0  0  0  0  0  0 11
   19.2665   35.5232    1.6835 C   0  0  0  0  0  0  0  0  0 12
   18.0663   37.8133    1.6835 C   0  0  0  0  0  0  0  0  0 13
   17.1024   30.0306    1.6835 H   0  0  0  0  0  0  0  0  0 14
   17.1249   32.5144    1.6835 H   0  0  0  0  0  0  0  0  0 15
   17.0790   37.2433    1.6835 H   0  0  0  0  0  0  0  0  0 16
   20.4667   37.8133    1.6835 C   0  0  0  0  0  0  0  0  0 17
   21.4306   30.0306    1.6835 H   0  0  0  0  0  0  0  0  0 18
   21.4081   32.5144    1.6835 H   0  0  0  0  0  0  0  0  0 19
   21.4540   37.2433    1.6835 H   0  0  0  0  0  0  0  0  0 20
   19.2665   48.0469    1.6835 F   0  0  0  0  0  0  0  0  0 21
   19.2665   47.2969    1.6835 C   0  0  0  0  0  0  0  0  0 24
   20.4667   46.5331    1.6835 C   0  0  0  0  0  0  0  0  0 25
   20.4667   45.0951    1.6835 C   0  0  0  0  0  0  0  0  0 26
   18.0663   46.5331    1.6835 C   0  0  0  0  0  0  0  0  0 27
   18.0663   45.0951    1.6835 C   0  0  0  0  0  0  0  0  0 28
   19.2665   44.3334    1.6835 C   0  0  0  0  0  0  0  0  0 29
   19.2665   40.0144    1.6835 C   0  0  0  0  0  0  0  0  0 30
   19.2665   42.8050    1.6835 C   0  0  0  0  0  0  0  0  0 31
   19.2665   41.5428    1.6835 C   0  0  0  0  0  0  0  0  0 32
   20.4667   39.2527    1.6835 C   0  0  0  0  0  0  0  0  0 33
   21.4306   47.0354    1.6835 H   0  0  0  0  0  0  0  0  0 34
   21.4081   44.5516    1.6835 H   0  0  0  0  0  0  0  0  0 35
   21.4540   39.8227    1.6835 H   0  0  0  0  0  0  0  0  0 36
   18.0663   39.2527    1.6835 C   0  0  0  0  0  0  0  0  0 37
   17.1024   47.0354    1.6835 H   0  0  0  0  0  0  0  0  0 38
   17.1249   44.5516    1.6835 H   0  0  0  0  0  0  0  0  0 39
   17.0790   39.8227    1.6835 H   0  0  0  0  0  0  0  0  0 40
  1  2  1  0  0  0
  2  3  4  0  0  0
  2  5  4  0  0  0
  3  4  4  0  0  0
  3 12  1  0  0  0
  4  7  4  0  0  0
  4 13  1  0  0  0
  5  6  4  0  0  0
  5 16  1  0  0  0
  6  7  4  0  0  0
  6 17  1  0  0  0
  7  9  1  0  0  0
  8 10  1  0  0  0
  8 11  4  0  0  0
  8 15  4  0  0  0
  9 10  3  0  0  0
 11 14  1  0  0  0
 11 33  4  0  0  0
 15 18  1  0  0  0
 15 29  4  0  0  0
 19 20  1  0  0  0
 20 23  4  0  0  0
 20 21  4  0  0  0
 21 30  1  0  0  0
 21 22  4  0  0  0
 22 25  4  0  0  0
 22 31  1  0  0  0
 23 34  1  0  0  0
 23 24  4  0  0  0
 24 25  4  0  0  0
 24 35  1  0  0  0
 25 27  1  0  0  0
 26 33  4  0  0  0
 26 29  4  0  0  0
 26 28  1  0  0  0
 27 28  3  0  0  0
 29 32  1  0  0  0
 33 36  1  0  0  0
M  $3D  2
M  $3D -9  9 B2-C12
M  $3D 19 20    0.7500    0.7500
M  $3D -9  9 B1-C1
M  $3D  1  2    0.7500    0.7500
M  END
