L13
  MatStudio         3D                             0

 46 51  0  0  0  0  0  0  0  0999 V2000
   34.9913   53.5515    1.6805 C   0  0  0  0  0  0  0  0  0  1
   34.9913   55.9399    1.6805 C   0  0  0  0  0  0  0  0  0  2
   34.9913   51.1631    1.6805 C   0  0  0  0  0  0  0  0  0  3
   34.2837   54.7456    1.6805 C   0  0  0  0  0  0  0  0  0  4
   32.8739   54.7456    1.6805 C   0  0  0  0  0  0  0  0  0  5
   34.2837   52.3574    1.6805 C   0  0  0  0  0  0  0  0  0  6
   32.8739   52.3574    1.6805 C   0  0  0  0  0  0  0  0  0  7
   30.6712   53.5515    1.6805 C   0  0  0  0  0  0  0  0  0  8
   29.9153   54.7456    1.6805 C   0  0  0  0  0  0  0  0  0  9
   28.5131   54.7456    1.6805 C   0  0  0  0  0  0  0  0  0 10
   29.9153   52.3574    1.6805 C   0  0  0  0  0  0  0  0  0 11
   28.5131   52.3574    1.6805 C   0  0  0  0  0  0  0  0  0 12
   27.7874   53.5515    1.6805 C   0  0  0  0  0  0  0  0  0 13
   32.2799   55.8466    1.6805 O   0  0  0  0  0  0  0  0  0 14
   32.2799   51.2564    1.6805 O   0  0  0  0  0  0  0  0  0 16
   27.0374   53.5515    1.6805 F   0  0  0  0  0  0  0  0  0 18
   32.1566   53.5515    1.6805 N   0  0  0  0  0  0  0  0  0 19
   34.4478   56.8813    1.6805 H   0  0  0  0  0  0  0  0  0 20
   30.4200   55.7084    1.6805 H   0  0  0  0  0  0  0  0  0 21
   27.9696   55.6870    1.6805 H   0  0  0  0  0  0  0  0  0 22
   34.4478   50.2217    1.6805 H   0  0  0  0  0  0  0  0  0 23
   30.4200   51.3946    1.6805 H   0  0  0  0  0  0  0  0  0 24
   27.9696   51.4160    1.6805 H   0  0  0  0  0  0  0  0  0 25
   36.4107   53.5515    1.6805 C   0  0  0  0  0  0  0  0  0 26
   36.4107   51.1631    1.6805 C   0  0  0  0  0  0  0  0  0 27
   36.4107   55.9399    1.6805 C   0  0  0  0  0  0  0  0  0 28
   37.1183   52.3574    1.6805 C   0  0  0  0  0  0  0  0  0 29
   38.5281   52.3574    1.6805 C   0  0  0  0  0  0  0  0  0 30
   37.1183   54.7456    1.6805 C   0  0  0  0  0  0  0  0  0 31
   38.5281   54.7456    1.6805 C   0  0  0  0  0  0  0  0  0 32
   40.7308   53.5515    1.6805 C   0  0  0  0  0  0  0  0  0 33
   41.4867   52.3574    1.6805 C   0  0  0  0  0  0  0  0  0 34
   42.8889   52.3574    1.6805 C   0  0  0  0  0  0  0  0  0 35
   41.4867   54.7456    1.6805 C   0  0  0  0  0  0  0  0  0 36
   42.8889   54.7456    1.6805 C   0  0  0  0  0  0  0  0  0 37
   43.6146   53.5515    1.6805 C   0  0  0  0  0  0  0  0  0 38
   39.1221   51.2564    1.6805 O   0  0  0  0  0  0  0  0  0 39
   39.1221   55.8466    1.6805 O   0  0  0  0  0  0  0  0  0 41
   44.3646   53.5515    1.6805 F   0  0  0  0  0  0  0  0  0 43
   39.2454   53.5515    1.6805 N   0  0  0  0  0  0  0  0  0 44
   36.9542   50.2217    1.6805 H   0  0  0  0  0  0  0  0  0 45
   40.9820   51.3946    1.6805 H   0  0  0  0  0  0  0  0  0 46
   43.4324   51.4160    1.6805 H   0  0  0  0  0  0  0  0  0 47
   36.9542   56.8813    1.6805 H   0  0  0  0  0  0  0  0  0 48
   40.9820   55.7084    1.6805 H   0  0  0  0  0  0  0  0  0 49
   43.4324   55.6870    1.6805 H   0  0  0  0  0  0  0  0  0 50
  1  4  4  0  0  0
  1 24  4  0  0  0
  1  6  4  0  0  0
  2 26  4  0  0  0
  2 18  1  0  0  0
  2  4  4  0  0  0
  3 21  1  0  0  0
  3 25  4  0  0  0
  3  6  4  0  0  0
  4  5  1  0  0  0
  5 17  1  0  0  0
  5 14  2  0  0  0
  6  7  1  0  0  0
  7 17  1  0  0  0
  7 15  2  0  0  0
  8  9  4  0  0  0
  8 17  1  0  0  0
  8 11  4  0  0  0
  9 10  4  0  0  0
  9 19  1  0  0  0
 10 13  4  0  0  0
 10 20  1  0  0  0
 11 12  4  0  0  0
 11 22  1  0  0  0
 12 23  1  0  0  0
 12 13  4  0  0  0
 13 16  1  0  0  0
 24 29  4  0  0  0
 24 27  4  0  0  0
 25 41  1  0  0  0
 25 27  4  0  0  0
 26 44  1  0  0  0
 26 29  4  0  0  0
 27 28  1  0  0  0
 28 40  1  0  0  0
 28 37  2  0  0  0
 29 30  1  0  0  0
 30 40  1  0  0  0
 30 38  2  0  0  0
 31 40  1  0  0  0
 31 34  4  0  0  0
 31 32  4  0  0  0
 32 42  1  0  0  0
 32 33  4  0  0  0
 33 43  1  0  0  0
 33 36  4  0  0  0
 34 35  4  0  0  0
 34 45  1  0  0  0
 35 36  4  0  0  0
 35 46  1  0  0  0
 36 39  1  0  0  0
M  $3D  2
M  $3D -9  9 B1-C13
M  $3D 16 13    0.7500    0.7500
M  $3D -9  9 B2-C26
M  $3D 39 36    0.7500    0.7500
M  END
