L14
  MatStudio         3D                             0

 60 62  0  0  0  0  0  0  0  0999 V2000
   11.6532   25.1673    0.8880 H   0  0  0  0  0  0  0  0  0  1
   13.2271   23.2280    0.8987 H   0  0  0  0  0  0  0  0  0  2
   11.2907   14.5726    0.8880 H   0  0  0  0  0  0  0  0  0  3
    9.7167   16.5119    0.8987 H   0  0  0  0  0  0  0  0  0  4
   11.2907   14.5726   -0.8880 H   0  0  0  0  0  0  0  0  0  5
    9.7167   16.5119   -0.8987 H   0  0  0  0  0  0  0  0  0  6
   11.6532   25.1673   -0.8880 H   0  0  0  0  0  0  0  0  0  7
   13.2271   23.2280   -0.8987 H   0  0  0  0  0  0  0  0  0  8
   13.5805   21.1377    0.0000 H   0  0  0  0  0  0  0  0  0  9
   13.1881   25.5448    0.0000 H   0  0  0  0  0  0  0  0  0 10
   10.2926   19.1546    0.0000 C   0  0  0  0  0  0  0  0  0 11
   10.2192   20.5694    0.0000 C   0  0  0  0  0  0  0  0  0 12
    8.8380   21.1893    0.0000 C   0  0  0  0  0  0  0  0  0 13
   11.4352   21.2926    0.0000 C   0  0  0  0  0  0  0  0  0 14
    6.9405   24.2533    0.0000 C   0  0  0  0  0  0  0  0  0 15
   12.6191   23.4545    0.0000 C   0  0  0  0  0  0  0  0  0 16
   12.2658   24.9249    0.0000 C   0  0  0  0  0  0  0  0  0 17
    7.8812   20.4303    0.0000 O   0  0  0  0  0  0  0  0  0 18
   11.4077   22.6994    0.0000 O   0  0  0  0  0  0  0  0  0 19
    8.5741   22.5365    0.0000 N   0  0  0  0  0  0  0  0  0 20
    7.2411   22.9935    0.0000 N   0  0  0  0  0  0  0  0  0 21
   17.4121   15.0495    0.0000 C   0  0  0  0  0  0  0  0  0 22
   20.1309   14.1633    0.0000 C   0  0  0  0  0  0  0  0  0 23
   18.4606   15.9754    0.0000 C   0  0  0  0  0  0  0  0  0 24
   17.7149   13.6904    0.0000 C   0  0  0  0  0  0  0  0  0 25
   19.7914   15.5463    0.0000 C   0  0  0  0  0  0  0  0  0 26
   19.0434   13.2493    0.0000 C   0  0  0  0  0  0  0  0  0 27
    4.6966   22.7034    0.0000 H   0  0  0  0  0  0  0  0  0 28
    2.4206   23.4108    0.0000 H   0  0  0  0  0  0  0  0  0 29
    6.0274   26.7887    0.0000 H   0  0  0  0  0  0  0  0  0 30
    3.7720   27.5557    0.0000 H   0  0  0  0  0  0  0  0  0 31
    7.7275   24.9964    0.0000 H   0  0  0  0  0  0  0  0  0 32
    9.3267   23.2439    0.0000 H   0  0  0  0  0  0  0  0  0 33
    9.3634   18.6023    0.0000 H   0  0  0  0  0  0  0  0  0 34
    9.7557   14.1951    0.0000 H   0  0  0  0  0  0  0  0  0 35
   12.6512   20.5853    0.0000 C   0  0  0  0  0  0  0  0  0 36
   12.7247   19.1705    0.0000 C   0  0  0  0  0  0  0  0  0 37
   14.1059   18.5506    0.0000 C   0  0  0  0  0  0  0  0  0 38
   11.5086   18.4473    0.0000 C   0  0  0  0  0  0  0  0  0 39
   16.0033   15.4866    0.0000 C   0  0  0  0  0  0  0  0  0 40
   10.3247   16.2854    0.0000 C   0  0  0  0  0  0  0  0  0 41
   10.6781   14.8150    0.0000 C   0  0  0  0  0  0  0  0  0 42
   15.0626   19.3096    0.0000 O   0  0  0  0  0  0  0  0  0 43
   11.5362   17.0405    0.0000 O   0  0  0  0  0  0  0  0  0 44
   14.3697   17.2034    0.0000 N   0  0  0  0  0  0  0  0  0 45
   15.7028   16.7464    0.0000 N   0  0  0  0  0  0  0  0  0 46
    5.5318   24.6904    0.0000 C   0  0  0  0  0  0  0  0  0 47
    2.8129   25.5766    0.0000 C   0  0  0  0  0  0  0  0  0 48
    4.4832   23.7645    0.0000 C   0  0  0  0  0  0  0  0  0 49
    5.2289   26.0495    0.0000 C   0  0  0  0  0  0  0  0  0 50
    3.1525   24.1937    0.0000 C   0  0  0  0  0  0  0  0  0 51
    3.9005   26.4906    0.0000 C   0  0  0  0  0  0  0  0  0 52
   18.2472   17.0365    0.0000 H   0  0  0  0  0  0  0  0  0 53
   20.5233   16.3291    0.0000 H   0  0  0  0  0  0  0  0  0 54
   16.9165   12.9512    0.0000 H   0  0  0  0  0  0  0  0  0 55
   19.1719   12.1843    0.0000 H   0  0  0  0  0  0  0  0  0 56
   15.2164   14.7435    0.0000 H   0  0  0  0  0  0  0  0  0 57
   13.6172   16.4960    0.0000 H   0  0  0  0  0  0  0  0  0 58
    2.1079   25.8326    0.0000 F   0  0  0  0  0  0  0  0  0 60
   20.8359   13.9073    0.0000 F   0  0  0  0  0  0  0  0  0 63
  1 17  1  0  0  0
  2 16  1  0  0  0
  3 42  1  0  0  0
  4 41  1  0  0  0
  5 42  1  0  0  0
  6 41  1  0  0  0
  7 17  1  0  0  0
  8 16  1  0  0  0
  9 36  1  0  0  0
 10 17  1  0  0  0
 11 34  1  0  0  0
 11 39  4  0  0  0
 11 12  4  0  0  0
 12 13  1  0  0  0
 12 14  4  0  0  0
 13 18  2  0  0  0
 13 20  1  0  0  0
 14 19  1  0  0  0
 14 36  4  0  0  0
 15 47  1  0  0  0
 15 32  1  0  0  0
 15 21  2  0  0  0
 16 17  1  0  0  0
 16 19  1  0  0  0
 20 21  1  0  0  0
 20 33  1  0  0  0
 22 40  1  0  0  0
 22 24  4  0  0  0
 22 25  4  0  0  0
 23 27  4  0  0  0
 23 60  1  0  0  0
 23 26  4  0  0  0
 24 53  1  0  0  0
 24 26  4  0  0  0
 25 27  4  0  0  0
 25 55  1  0  0  0
 26 54  1  0  0  0
 27 56  1  0  0  0
 28 49  1  0  0  0
 29 51  1  0  0  0
 30 50  1  0  0  0
 31 52  1  0  0  0
 35 42  1  0  0  0
 36 37  4  0  0  0
 37 38  1  0  0  0
 37 39  4  0  0  0
 38 43  2  0  0  0
 38 45  1  0  0  0
 39 44  1  0  0  0
 40 57  1  0  0  0
 40 46  2  0  0  0
 41 44  1  0  0  0
 41 42  1  0  0  0
 45 46  1  0  0  0
 45 58  1  0  0  0
 47 49  4  0  0  0
 47 50  4  0  0  0
 48 59  1  0  0  0
 48 52  4  0  0  0
 48 51  4  0  0  0
 49 51  4  0  0  0
 50 52  4  0  0  0
M  $3D  2
M  $3D -9  9 B1-C22
M  $3D 59 48    0.7500    0.7500
M  $3D -9  9 B2-C9
M  $3D 60 23    0.7500    0.7500
M  END
