L16
  MatStudio         3D                             0

 42 45  0  0  0  0  0  0  0  0999 V2000
    0.0000   19.6810    5.2146 F   0  0  0  0  0  0  0  0  0  1
    5.6888   29.5344    5.2146 F   0  0  0  0  0  0  0  0  0  4
   -5.6888   29.5344    5.2146 F   0  0  0  0  0  0  0  0  0  7
    5.0386   27.6849    5.2146 C   0  0  0  0  0  0  0  0  0  8
    3.8425   26.9779    5.2146 C   0  0  0  0  0  0  0  0  0  9
    5.9732   27.1385    5.2146 H   0  0  0  0  0  0  0  0  0 10
    3.8725   25.8963    5.2146 H   0  0  0  0  0  0  0  0  0 11
   -3.7620   29.8960    5.2146 C   0  0  0  0  0  0  0  0  0 13
   -2.5517   29.2136    5.2146 C   0  0  0  0  0  0  0  0  0 14
   -3.7562   30.9786    5.2146 H   0  0  0  0  0  0  0  0  0 15
   -1.6300   29.7804    5.2146 H   0  0  0  0  0  0  0  0  0 16
   -1.2766   21.1689    5.2146 C   0  0  0  0  0  0  0  0  0 17
   -1.2908   22.5583    5.2146 C   0  0  0  0  0  0  0  0  0 18
   -2.2170   20.6326    5.2146 H   0  0  0  0  0  0  0  0  0 19
   -2.2425   23.0731    5.2146 H   0  0  0  0  0  0  0  0  0 20
    1.2766   21.1689    5.2146 C   0  0  0  0  0  0  0  0  0 21
    1.2908   22.5583    5.2146 C   0  0  0  0  0  0  0  0  0 22
    2.2170   20.6326    5.2146 H   0  0  0  0  0  0  0  0  0 23
    2.2425   23.0731    5.2146 H   0  0  0  0  0  0  0  0  0 24
   -5.0386   27.6849    5.2146 C   0  0  0  0  0  0  0  0  0 26
   -3.8425   26.9779    5.2146 C   0  0  0  0  0  0  0  0  0 27
   -5.9732   27.1385    5.2146 H   0  0  0  0  0  0  0  0  0 28
   -3.8725   25.8963    5.2146 H   0  0  0  0  0  0  0  0  0 29
    3.7620   29.8960    5.2146 C   0  0  0  0  0  0  0  0  0 30
    2.5517   29.2136    5.2146 C   0  0  0  0  0  0  0  0  0 31
    3.7562   30.9786    5.2146 H   0  0  0  0  0  0  0  0  0 32
    1.6300   29.7804    5.2146 H   0  0  0  0  0  0  0  0  0 33
    0.0000   24.8424    5.2146 C   0  0  0  0  0  0  0  0  0 34
    0.0000   20.4310    5.2146 C   0  0  0  0  0  0  0  0  0 35
    0.0000   23.3345    5.2146 C   0  0  0  0  0  0  0  0  0 36
    1.2189   26.9537    5.2146 C   0  0  0  0  0  0  0  0  0 37
    5.0393   29.1594    5.2146 C   0  0  0  0  0  0  0  0  0 38
    2.5248   27.7076    5.2146 C   0  0  0  0  0  0  0  0  0 39
   -1.2189   26.9537    5.2146 C   0  0  0  0  0  0  0  0  0 40
   -5.0393   29.1594    5.2146 C   0  0  0  0  0  0  0  0  0 41
   -2.5248   27.7076    5.2146 C   0  0  0  0  0  0  0  0  0 42
   -1.2055   25.5539    5.2146 C   0  0  0  0  0  0  0  0  0 43
    1.2055   25.5539    5.2146 C   0  0  0  0  0  0  0  0  0 44
    0.0000   27.6420    5.2146 C   0  0  0  0  0  0  0  0  0 45
    2.1477   25.0219    5.2146 H   0  0  0  0  0  0  0  0  0 46
   -0.0104   28.7239    5.2146 H   0  0  0  0  0  0  0  0  0 47
   -2.1373   25.0040    5.2146 H   0  0  0  0  0  0  0  0  0 48
  3 35  1  0  0  0
  4  5  4  0  0  0
  4  6  1  0  0  0
  4 32  4  0  0  0
  5 33  4  0  0  0
  5  7  1  0  0  0
  8 35  4  0  0  0
  8  9  4  0  0  0
  8 10  1  0  0  0
  9 11  1  0  0  0
  9 36  4  0  0  0
 12 29  4  0  0  0
 12 14  1  0  0  0
 12 13  4  0  0  0
 13 30  4  0  0  0
 13 15  1  0  0  0
 16 29  4  0  0  0
 16 18  1  0  0  0
 16 17  4  0  0  0
 17 30  4  0  0  0
 17 19  1  0  0  0
 20 21  4  0  0  0
 20 22  1  0  0  0
 20 35  4  0  0  0
 21 36  4  0  0  0
 21 23  1  0  0  0
 24 32  4  0  0  0
 24 25  4  0  0  0
 24 26  1  0  0  0
 25 27  1  0  0  0
 25 33  4  0  0  0
 28 37  4  0  0  0
 28 38  4  0  0  0
 28 30  1  0  0  0
 31 39  4  0  0  0
 31 33  1  0  0  0
 31 38  4  0  0  0
 34 39  4  0  0  0
 34 36  1  0  0  0
 34 37  4  0  0  0
 37 42  1  0  0  0
 38 40  1  0  0  0
 39 41  1  0  0  0
  1 29  1  0  0  0
  2 32  1  0  0  0
M  $3D  3
M  $3D -9  9 B3-C38
M  $3D  3 35    0.7500    0.7500
M  $3D -9  9 B1-C32
M  $3D  1 29    0.7500    0.7500
M  $3D -9  9 B2-C35
M  $3D  2 32    0.7500    0.7500
M  END
