L17
  MatStudio         3D                             0

 81 85  0  0  0  0  0  0  0  0999 V2000
    5.6706   28.0502    5.2146 C   0  0  0  0  0  0  0  0  0  1
    4.4745   27.3432    5.2146 C   0  0  0  0  0  0  0  0  0  2
    7.0345   27.3407    5.3049 C   0  0  0  0  0  0  0  0  0  3
    4.4861   26.2033    5.2146 H   0  0  0  0  0  0  0  0  0  4
   -3.1300   30.2613    5.2146 C   0  0  0  0  0  0  0  0  0  5
   -1.9197   29.5789    5.2146 C   0  0  0  0  0  0  0  0  0  6
   -3.0369   31.7973    5.2704 C   0  0  0  0  0  0  0  0  0  7
   -0.9383   30.1590    5.2146 H   0  0  0  0  0  0  0  0  0  8
   -0.6446   21.5342    5.2146 C   0  0  0  0  0  0  0  0  0  9
   -0.6588   22.9236    5.2146 C   0  0  0  0  0  0  0  0  0 10
   -1.9952   20.8035    5.3297 C   0  0  0  0  0  0  0  0  0 11
   -1.6518   23.4835    5.2146 H   0  0  0  0  0  0  0  0  0 12
    1.9086   21.5342    5.2146 C   0  0  0  0  0  0  0  0  0 13
    1.9228   22.9236    5.2146 C   0  0  0  0  0  0  0  0  0 14
    2.9158   23.4835    5.2146 H   0  0  0  0  0  0  0  0  0 15
   -4.4065   28.0502    5.2146 C   0  0  0  0  0  0  0  0  0 16
   -3.2104   27.3432    5.2146 C   0  0  0  0  0  0  0  0  0 17
   -3.2221   26.2033    5.2146 H   0  0  0  0  0  0  0  0  0 18
    4.3940   30.2613    5.2146 C   0  0  0  0  0  0  0  0  0 19
    3.1837   29.5789    5.2146 C   0  0  0  0  0  0  0  0  0 20
    2.2023   30.1590    5.2146 H   0  0  0  0  0  0  0  0  0 21
    0.6320   25.2077    5.2146 C   0  0  0  0  0  0  0  0  0 22
    0.6320   20.7964    5.2146 C   0  0  0  0  0  0  0  0  0 23
    0.6320   23.6999    5.2146 C   0  0  0  0  0  0  0  0  0 24
    1.8510   27.3190    5.2146 C   0  0  0  0  0  0  0  0  0 25
    5.6713   29.5247    5.2146 C   0  0  0  0  0  0  0  0  0 26
    3.1568   28.0729    5.2146 C   0  0  0  0  0  0  0  0  0 27
   -0.5869   27.3190    5.2146 C   0  0  0  0  0  0  0  0  0 28
   -4.4073   29.5247    5.2146 C   0  0  0  0  0  0  0  0  0 29
   -1.8928   28.0729    5.2146 C   0  0  0  0  0  0  0  0  0 30
   -0.5735   25.9192    5.2146 C   0  0  0  0  0  0  0  0  0 31
    1.8376   25.9192    5.2146 C   0  0  0  0  0  0  0  0  0 32
    0.6320   28.0073    5.2146 C   0  0  0  0  0  0  0  0  0 33
    2.8302   25.3587    5.2146 H   0  0  0  0  0  0  0  0  0 34
    0.6211   29.1472    5.2146 H   0  0  0  0  0  0  0  0  0 35
   -1.5662   25.3587    5.2146 H   0  0  0  0  0  0  0  0  0 36
    0.6314   19.6564    5.2146 O   0  0  0  0  0  0  0  0  0 37
    6.6589   30.0942    5.2146 O   0  0  0  0  0  0  0  0  0 38
   -5.3943   30.0952    5.2146 O   0  0  0  0  0  0  0  0  0 39
    4.3936   31.0113    5.2146 F   0  0  0  0  0  0  0  0  0 41
    2.5583   21.1596    5.2146 F   0  0  0  0  0  0  0  0  0 44
   -5.0599   27.6819    5.2146 F   0  0  0  0  0  0  0  0  0 47
    7.6908   27.3103    3.9122 C   0  0  0  0  0  0  0  0  0 49
    6.8317   25.8995    5.8082 C   0  0  0  0  0  0  0  0  0 50
    7.9464   28.1019    6.2848 C   0  0  0  0  0  0  0  0  0 51
   -2.2540   32.3083    4.0466 C   0  0  0  0  0  0  0  0  0 52
   -2.3111   32.2167    6.5625 C   0  0  0  0  0  0  0  0  0 53
   -4.4522   32.4045    5.2581 C   0  0  0  0  0  0  0  0  0 54
   -1.7582   19.3534    5.7895 C   0  0  0  0  0  0  0  0  0 55
   -2.6959   20.7976    3.9590 C   0  0  0  0  0  0  0  0  0 56
   -2.8843   21.5282    6.3566 C   0  0  0  0  0  0  0  0  0 57
    8.6998   26.7840    3.9788 H   0  0  0  0  0  0  0  0  0 58
    7.0152   26.7470    3.1869 H   0  0  0  0  0  0  0  0  0 59
    7.8422   28.3773    3.5404 H   0  0  0  0  0  0  0  0  0 60
    7.8417   25.3751    5.8735 H   0  0  0  0  0  0  0  0  0 61
    6.3476   25.9221    6.8400 H   0  0  0  0  0  0  0  0  0 62
    6.1564   25.3352    5.0835 H   0  0  0  0  0  0  0  0  0 63
    8.9559   27.5761    6.3506 H   0  0  0  0  0  0  0  0  0 64
    7.4612   28.1236    7.3162 H   0  0  0  0  0  0  0  0  0 65
    8.0968   29.1687    5.9125 H   0  0  0  0  0  0  0  0  0 66
   -2.1833   33.4441    4.0889 H   0  0  0  0  0  0  0  0  0 67
   -2.7934   31.9961    3.0939 H   0  0  0  0  0  0  0  0  0 68
   -1.2048   31.8612    4.0529 H   0  0  0  0  0  0  0  0  0 69
   -1.2626   31.7693    6.5708 H   0  0  0  0  0  0  0  0  0 70
   -2.2406   33.3505    6.6067 H   0  0  0  0  0  0  0  0  0 71
   -2.8938   31.8363    7.4646 H   0  0  0  0  0  0  0  0  0 72
   -5.0350   32.0302    6.1634 H   0  0  0  0  0  0  0  0  0 73
   -4.9899   32.0959    4.3045 H   0  0  0  0  0  0  0  0  0 74
   -1.2417   19.3578    6.8057 H   0  0  0  0  0  0  0  0  0 75
   -1.0990   18.8175    5.0291 H   0  3  0  0  0  0  0  0  0 76
   -2.7588   18.8136    5.8733 H   0  0  0  0  0  0  0  0  0 77
   -2.0367   20.2627    3.1980 H   0  0  0  0  0  0  0  0  0 78
   -3.6947   20.2555    4.0458 H   0  0  0  0  0  0  0  0  0 79
   -2.8741   21.8715    3.6201 H   0  0  0  0  0  0  0  0  0 80
   -3.8842   20.9867    6.4409 H   0  0  0  0  0  0  0  0  0 81
   -2.3655   21.5308    7.3717 H   0  0  0  0  0  0  0  0  0 82
   -3.0606   22.6017    6.0162 H   0  0  0  0  0  0  0  0  0 83
   -4.3764   33.5431    5.2998 H   0  0  0  0  0  0  0  0  0 84
   -0.4153   19.2869    5.2151 H   0  3  0  0  0  0  0  0  0 85
    6.5842   30.9642    5.8998 H   0  0  0  0  0  0  0  0  0 86
   -5.3187   30.9653    5.8996 H   0  0  0  0  0  0  0  0  0 87
  1  2  4  0  0  0
  1  3  1  0  0  0
  1 26  4  0  0  0
  2 27  4  0  0  0
  2  4  1  0  0  0
  3 43  1  0  0  0
  3 45  1  0  0  0
  3 44  1  0  0  0
  5 29  4  0  0  0
  5  6  4  0  0  0
  5  7  1  0  0  0
  6  8  1  0  0  0
  6 30  4  0  0  0
  7 48  1  0  0  0
  7 46  1  0  0  0
  7 47  1  0  0  0
  9 23  4  0  0  0
  9 10  4  0  0  0
  9 11  1  0  0  0
 10 24  4  0  0  0
 10 12  1  0  0  0
 11 51  1  0  0  0
 11 49  1  0  0  0
 11 50  1  0  0  0
 13 23  4  0  0  0
 13 41  1  0  0  0
 13 14  4  0  0  0
 14 24  4  0  0  0
 14 15  1  0  0  0
 16 17  4  0  0  0
 16 42  1  0  0  0
 16 29  4  0  0  0
 17 30  4  0  0  0
 17 18  1  0  0  0
 19 26  4  0  0  0
 19 20  4  0  0  0
 19 40  1  0  0  0
 20 21  1  0  0  0
 20 27  4  0  0  0
 22 31  4  0  0  0
 22 32  4  0  0  0
 22 24  1  0  0  0
 23 37  1  0  0  0
 25 33  4  0  0  0
 25 27  1  0  0  0
 25 32  4  0  0  0
 26 38  1  0  0  0
 28 33  4  0  0  0
 28 30  1  0  0  0
 28 31  4  0  0  0
 29 39  1  0  0  0
 31 36  1  0  0  0
 32 34  1  0  0  0
 33 35  1  0  0  0
 37 79  1  0  0  0
 38 80  1  0  0  0
 39 81  1  0  0  0
 43 52  1  0  0  0
 43 54  1  0  0  0
 43 53  1  0  0  0
 44 56  1  0  0  0
 44 55  1  0  0  0
 44 57  1  0  0  0
 45 58  1  0  0  0
 45 60  1  0  0  0
 45 59  1  0  0  0
 46 61  1  0  0  0
 46 63  1  0  0  0
 46 62  1  0  0  0
 47 64  1  0  0  0
 47 65  1  0  0  0
 47 66  1  0  0  0
 48 78  1  0  0  0
 48 68  1  0  0  0
 48 67  1  0  0  0
 49 69  1  0  0  0
 49 71  1  0  0  0
 49 70  1  0  0  0
 50 73  1  0  0  0
 50 74  1  0  0  0
 50 72  1  0  0  0
 51 75  1  0  0  0
 51 77  1  0  0  0
 51 76  1  0  0  0
 70 79  1  0  0  0
M  $3D  3
M  $3D -9  9 C12-B3
M  $3D 16 42    0.7500    0.7500
M  $3D -9  9 B1-C14
M  $3D 40 19    0.7500    0.7500
M  $3D -9  9 B2-C10
M  $3D 41 13    0.7500    0.7500
M  END
