L18
  MatStudio         3D                             0

 58 64  0  0  0  0  0  0  0  0999 V2000
   15.9892    3.2927   10.5480 N   0  0  0  0  0  0  0  0  0  1
   16.1042    3.2927    9.4440 H   0  0  0  0  0  0  0  0  0  2
   15.9892    3.2927    6.3142 N   0  0  0  0  0  0  0  0  0  3
   16.1042    3.2927    7.4182 H   0  0  0  0  0  0  0  0  0  4
   14.9220    3.2927   11.3218 C   0  0  0  0  0  0  0  0  0  5
   15.3310    3.2927   12.5773 C   0  0  0  0  0  0  0  0  0  6
   17.0563    3.2927   11.3218 C   0  0  0  0  0  0  0  0  0  7
   16.6473    3.2927   12.5773 C   0  0  0  0  0  0  0  0  0  8
   17.0563    3.2927    5.5404 C   0  0  0  0  0  0  0  0  0  9
   16.6473    3.2927    4.2849 C   0  0  0  0  0  0  0  0  0 10
   14.9220    3.2927    5.5404 C   0  0  0  0  0  0  0  0  0 11
   15.3310    3.2927    4.2849 C   0  0  0  0  0  0  0  0  0 12
   14.5689    3.2927   13.4251 H   0  0  0  0  0  0  0  0  0 13
   17.2173    3.2927   13.5646 H   0  0  0  0  0  0  0  0  0 14
   17.4094    3.2927    3.4371 H   0  0  0  0  0  0  0  0  0 15
   14.7610    3.2927    3.2976 H   0  0  0  0  0  0  0  0  0 16
   13.8728    3.2927    8.4311 N   0  0  0  0  0  0  0  0  0 17
   18.1055    3.2927    8.4311 N   0  0  0  0  0  0  0  0  0 18
   13.0980    3.2927    9.4995 C   0  0  0  0  0  0  0  0  0 19
   11.8464    3.2927    9.0911 C   0  0  0  0  0  0  0  0  0 20
   18.8803    3.2927    9.4995 C   0  0  0  0  0  0  0  0  0 21
   20.1319    3.2927    9.0911 C   0  0  0  0  0  0  0  0  0 22
   18.8803    3.2927    7.3627 C   0  0  0  0  0  0  0  0  0 23
   20.1319    3.2927    7.7711 C   0  0  0  0  0  0  0  0  0 24
   13.0980    3.2927    7.3627 C   0  0  0  0  0  0  0  0  0 25
   11.8464    3.2927    7.7711 C   0  0  0  0  0  0  0  0  0 26
   10.9982    3.2927    9.8529 H   0  0  0  0  0  0  0  0  0 27
   13.5489    3.2927   10.8716 C   0  0  0  0  0  0  0  0  0 28
   20.9801    3.2927    9.8529 H   0  0  0  0  0  0  0  0  0 29
   18.4294    3.2927   10.8716 C   0  0  0  0  0  0  0  0  0 30
   19.3986    3.2927   11.8411 C   0  0  0  0  0  0  0  0  0 31
   21.1192    3.2927    7.2011 H   0  0  0  0  0  0  0  0  0 32
   18.4294    3.2927    5.9906 C   0  0  0  0  0  0  0  0  0 33
   10.8591    3.2927    7.2011 H   0  0  0  0  0  0  0  0  0 34
   13.5489    3.2927    5.9906 C   0  0  0  0  0  0  0  0  0 35
   12.5797    3.2927    5.0211 C   0  0  0  0  0  0  0  0  0 36
   19.8831    2.1051   12.3251 C   0  0  0  0  0  0  0  0  0 37
   19.4801    1.1181   11.9212 H   0  0  0  0  0  0  0  0  0 38
   20.8524    2.1051   13.2950 C   0  0  0  0  0  0  0  0  0 39
   21.2558    1.1178   13.6977 H   0  0  0  0  0  0  0  0  0 40
   12.0952    2.1051    4.5371 C   0  0  0  0  0  0  0  0  0 41
   12.4982    1.1181    4.9410 H   0  0  0  0  0  0  0  0  0 42
   11.1259    2.1051    3.5672 C   0  0  0  0  0  0  0  0  0 43
   10.7225    1.1178    3.1645 H   0  0  0  0  0  0  0  0  0 44
   12.0952    4.4804    4.5371 C   0  0  0  0  0  0  0  0  0 45
   12.4982    5.4673    4.9410 H   0  0  0  0  0  0  0  0  0 46
   11.1259    4.4804    3.5672 C   0  0  0  0  0  0  0  0  0 47
   10.7225    5.4676    3.1645 H   0  0  0  0  0  0  0  0  0 48
   19.8831    4.4804   12.3251 C   0  0  0  0  0  0  0  0  0 49
   19.4801    5.4673   11.9212 H   0  0  0  0  0  0  0  0  0 50
   20.8524    4.4804   13.2950 C   0  0  0  0  0  0  0  0  0 51
   21.2558    5.4676   13.6977 H   0  0  0  0  0  0  0  0  0 52
   21.3350    3.2927   13.7789 C   0  0  0  0  0  0  0  0  0 53
   10.6433    3.2927    3.0833 C   0  0  0  0  0  0  0  0  0 54
   12.6997    3.2927   11.6321 H   0  0  0  0  0  0  0  0  0 55
   19.2786    3.2927    5.2301 H   0  0  0  0  0  0  0  0  0 56
   10.1138    3.2938    2.5522 F   0  0  0  0  0  0  0  0  0 58
   21.8645    3.2938   14.3100 F   0  0  0  0  0  0  0  0  0 61
  1  2  1  0  0  0
  1  7  4  0  0  0
  1  5  4  0  0  0
  3  9  4  0  0  0
  3 11  4  0  0  0
  3  4  1  0  0  0
  5 28  4  0  0  0
  5  6  4  0  0  0
  6 13  1  0  0  0
  6  8  4  0  0  0
  7 30  4  0  0  0
  7  8  4  0  0  0
  8 14  1  0  0  0
  9 33  4  0  0  0
  9 10  4  0  0  0
 10 12  4  0  0  0
 10 15  1  0  0  0
 11 35  4  0  0  0
 11 12  4  0  0  0
 12 16  1  0  0  0
 17 25  4  0  0  0
 17 19  4  0  0  0
 18 23  4  0  0  0
 18 21  4  0  0  0
 19 20  1  0  0  0
 19 28  4  0  0  0
 20 27  1  0  0  0
 20 26  2  0  0  0
 21 22  1  0  0  0
 21 30  4  0  0  0
 22 29  1  0  0  0
 22 24  2  0  0  0
 23 24  1  0  0  0
 23 33  4  0  0  0
 24 32  1  0  0  0
 25 26  1  0  0  0
 25 35  4  0  0  0
 26 34  1  0  0  0
 28 55  1  0  0  0
 30 31  1  0  0  0
 31 37  4  0  0  0
 31 49  4  0  0  0
 33 56  1  0  0  0
 35 36  1  0  0  0
 36 41  4  0  0  0
 36 45  4  0  0  0
 37 38  1  0  0  0
 37 39  4  0  0  0
 39 53  4  0  0  0
 39 40  1  0  0  0
 41 43  4  0  0  0
 41 42  1  0  0  0
 43 54  4  0  0  0
 43 44  1  0  0  0
 45 47  4  0  0  0
 45 46  1  0  0  0
 47 48  1  0  0  0
 47 54  4  0  0  0
 49 50  1  0  0  0
 49 51  4  0  0  0
 51 52  1  0  0  0
 51 53  4  0  0  0
 53 58  1  0  0  0
 54 57  1  0  0  0
M  $3D  2
M  $3D -9  9 B1-C32
M  $3D 57 54    0.7500    0.7500
M  $3D -9  9 B2-C31
M  $3D 58 53    0.7500    0.7500
M  END
