L19
  MatStudio         3D                             0

 78 86  0  0  0  0  0  0  0  0999 V2000
   15.6691    3.2906   10.8677 N   0  0  0  0  0  0  0  0  0  1
   15.7841    3.2906    9.7637 H   0  0  0  0  0  0  0  0  0  2
   15.6691    3.2906    6.6340 N   0  0  0  0  0  0  0  0  0  3
   15.7841    3.2906    7.7380 H   0  0  0  0  0  0  0  0  0  4
   14.6020    3.2906   11.6416 C   0  0  0  0  0  0  0  0  0  5
   15.0110    3.2906   12.8971 C   0  0  0  0  0  0  0  0  0  6
   16.7362    3.2906   11.6416 C   0  0  0  0  0  0  0  0  0  7
   16.3272    3.2906   12.8971 C   0  0  0  0  0  0  0  0  0  8
   16.7362    3.2906    5.8602 C   0  0  0  0  0  0  0  0  0  9
   16.3272    3.2906    4.6046 C   0  0  0  0  0  0  0  0  0 10
   14.6020    3.2906    5.8602 C   0  0  0  0  0  0  0  0  0 11
   15.0110    3.2906    4.6046 C   0  0  0  0  0  0  0  0  0 12
   14.2488    3.2906   13.7449 H   0  0  0  0  0  0  0  0  0 13
   16.8972    3.2906   13.8844 H   0  0  0  0  0  0  0  0  0 14
   17.0894    3.2906    3.7569 H   0  0  0  0  0  0  0  0  0 15
   14.4410    3.2906    3.6173 H   0  0  0  0  0  0  0  0  0 16
   13.5528    3.2906    8.7509 N   0  0  0  0  0  0  0  0  0 17
   17.7854    3.2906    8.7509 N   0  0  0  0  0  0  0  0  0 18
   12.7780    3.2906    9.8193 C   0  0  0  0  0  0  0  0  0 19
   11.5263    3.2906    9.4109 C   0  0  0  0  0  0  0  0  0 20
   18.5602    3.2906    9.8193 C   0  0  0  0  0  0  0  0  0 21
   19.8119    3.2906    9.4109 C   0  0  0  0  0  0  0  0  0 22
   18.5602    3.2906    7.6825 C   0  0  0  0  0  0  0  0  0 23
   19.8119    3.2906    8.0909 C   0  0  0  0  0  0  0  0  0 24
   12.7780    3.2906    7.6825 C   0  0  0  0  0  0  0  0  0 25
   11.5263    3.2906    8.0909 C   0  0  0  0  0  0  0  0  0 26
   10.6782    3.2906   10.1726 H   0  0  0  0  0  0  0  0  0 27
   13.2288    3.2906   11.1913 C   0  0  0  0  0  0  0  0  0 28
   12.2596    3.2906   12.1609 C   0  0  0  0  0  0  0  0  0 29
   20.6600    3.2906   10.1726 H   0  0  0  0  0  0  0  0  0 30
   18.1094    3.2906   11.1913 C   0  0  0  0  0  0  0  0  0 31
   19.0786    3.2906   12.1609 C   0  0  0  0  0  0  0  0  0 32
   20.7992    3.2906    7.5209 H   0  0  0  0  0  0  0  0  0 33
   18.1094    3.2906    6.3104 C   0  0  0  0  0  0  0  0  0 34
   19.0786    3.2906    5.3408 C   0  0  0  0  0  0  0  0  0 35
   10.5390    3.2906    7.5209 H   0  0  0  0  0  0  0  0  0 36
   13.2288    3.2906    6.3104 C   0  0  0  0  0  0  0  0  0 37
   12.2596    3.2906    5.3408 C   0  0  0  0  0  0  0  0  0 38
   11.7752    4.4783   12.6449 C   0  0  0  0  0  0  0  0  0 39
   12.1782    5.4652   12.2409 H   0  0  0  0  0  0  0  0  0 40
   10.8058    4.4783   13.6148 C   0  0  0  0  0  0  0  0  0 41
   10.4025    5.4655   14.0175 H   0  0  0  0  0  0  0  0  0 42
   19.5630    2.1030   12.6449 C   0  0  0  0  0  0  0  0  0 43
   19.1600    1.1160   12.2409 H   0  0  0  0  0  0  0  0  0 44
   20.5324    2.1030   13.6148 C   0  0  0  0  0  0  0  0  0 45
   20.9357    1.1157   14.0175 H   0  0  0  0  0  0  0  0  0 46
   19.5630    4.4783    4.8569 C   0  0  0  0  0  0  0  0  0 47
   19.1600    5.4652    5.2608 H   0  0  0  0  0  0  0  0  0 48
   20.5324    4.4783    3.8870 C   0  0  0  0  0  0  0  0  0 49
   20.9357    5.4655    3.4842 H   0  0  0  0  0  0  0  0  0 50
   11.7752    2.1030    4.8569 C   0  0  0  0  0  0  0  0  0 51
   12.1782    1.1160    5.2608 H   0  0  0  0  0  0  0  0  0 52
   10.8058    2.1030    3.8870 C   0  0  0  0  0  0  0  0  0 53
   10.4025    1.1157    3.4842 H   0  0  0  0  0  0  0  0  0 54
   19.5630    2.1030    4.8569 C   0  0  0  0  0  0  0  0  0 55
   19.1600    1.1160    5.2608 H   0  0  0  0  0  0  0  0  0 56
   20.5324    2.1030    3.8870 C   0  0  0  0  0  0  0  0  0 57
   20.9357    1.1157    3.4842 H   0  0  0  0  0  0  0  0  0 58
   11.7752    4.4783    4.8569 C   0  0  0  0  0  0  0  0  0 59
   12.1782    5.4652    5.2608 H   0  0  0  0  0  0  0  0  0 60
   10.8058    4.4783    3.8870 C   0  0  0  0  0  0  0  0  0 61
   10.4025    5.4655    3.4842 H   0  0  0  0  0  0  0  0  0 62
   11.7752    2.1030   12.6449 C   0  0  0  0  0  0  0  0  0 63
   12.1782    1.1160   12.2409 H   0  0  0  0  0  0  0  0  0 64
   10.8058    2.1030   13.6148 C   0  0  0  0  0  0  0  0  0 65
   10.4025    1.1157   14.0175 H   0  0  0  0  0  0  0  0  0 66
   19.5630    4.4783   12.6449 C   0  0  0  0  0  0  0  0  0 67
   19.1600    5.4652   12.2409 H   0  0  0  0  0  0  0  0  0 68
   20.5324    4.4783   13.6148 C   0  0  0  0  0  0  0  0  0 69
   20.9357    5.4655   14.0175 H   0  0  0  0  0  0  0  0  0 70
   10.3233    3.2906   14.0987 C   0  0  0  0  0  0  0  0  0 71
   21.0149    3.2906   14.0987 C   0  0  0  0  0  0  0  0  0 72
   21.0149    3.2906    3.4030 C   0  0  0  0  0  0  0  0  0 73
   10.3233    3.2906    3.4030 C   0  0  0  0  0  0  0  0  0 74
    9.7927    3.2906   14.6288 F   0  6  0  0  0  0  0  0  0 75
   21.5455    3.2906   14.6288 F   0  6  0  0  0  0  0  0  0 76
   21.5455    3.2906    2.8729 F   0  6  0  0  0  0  0  0  0 77
    9.7927    3.2906    2.8729 F   0  6  0  0  0  0  0  0  0 78
  1  2  1  0  0  0
  1  7  4  0  0  0
  1  5  4  0  0  0
  3  9  4  0  0  0
  3 11  4  0  0  0
  3  4  1  0  0  0
  5 28  4  0  0  0
  5  6  4  0  0  0
  6 13  1  0  0  0
  6  8  4  0  0  0
  7 31  4  0  0  0
  7  8  4  0  0  0
  8 14  1  0  0  0
  9 34  4  0  0  0
  9 10  4  0  0  0
 10 12  4  0  0  0
 10 15  1  0  0  0
 11 37  4  0  0  0
 11 12  4  0  0  0
 12 16  1  0  0  0
 17 25  4  0  0  0
 17 19  4  0  0  0
 18 23  4  0  0  0
 18 21  4  0  0  0
 19 20  1  0  0  0
 19 28  4  0  0  0
 20 27  1  0  0  0
 20 26  2  0  0  0
 21 22  1  0  0  0
 21 31  4  0  0  0
 22 30  1  0  0  0
 22 24  2  0  0  0
 23 24  1  0  0  0
 23 34  4  0  0  0
 24 33  1  0  0  0
 25 26  1  0  0  0
 25 37  4  0  0  0
 26 36  1  0  0  0
 28 29  1  0  0  0
 29 63  4  0  0  0
 29 39  4  0  0  0
 31 32  1  0  0  0
 32 43  4  0  0  0
 32 67  4  0  0  0
 34 35  1  0  0  0
 35 55  4  0  0  0
 35 47  4  0  0  0
 37 38  1  0  0  0
 38 51  4  0  0  0
 38 59  4  0  0  0
 39 40  1  0  0  0
 39 41  4  0  0  0
 41 42  1  0  0  0
 41 71  4  0  0  0
 43 44  1  0  0  0
 43 45  4  0  0  0
 45 72  4  0  0  0
 45 46  1  0  0  0
 47 49  4  0  0  0
 47 48  1  0  0  0
 49 50  1  0  0  0
 49 73  4  0  0  0
 51 53  4  0  0  0
 51 52  1  0  0  0
 53 74  4  0  0  0
 53 54  1  0  0  0
 55 57  4  0  0  0
 55 56  1  0  0  0
 57 73  4  0  0  0
 57 58  1  0  0  0
 59 61  4  0  0  0
 59 60  1  0  0  0
 61 62  1  0  0  0
 61 74  4  0  0  0
 63 64  1  0  0  0
 63 65  4  0  0  0
 65 71  4  0  0  0
 65 66  1  0  0  0
 67 68  1  0  0  0
 67 69  4  0  0  0
 69 70  1  0  0  0
 69 72  4  0  0  0
 71 75  1  0  0  0
 72 76  1  0  0  0
 73 77  1  0  0  0
 74 78  1  0  0  0
M  $3D  4
M  $3D -9  9 C44-C48
M  $3D 74 78    0.7500    0.7500
M  $3D -9  9 C43-C47
M  $3D 73 77    0.7500    0.7500
M  $3D -9  9 C42-C46
M  $3D 72 76    0.7500    0.7500
M  $3D -9  9 C45-C41
M  $3D 75 71    0.7500    0.7500
M  END
