L2
  MatStudio         3D                             0

 22 23  0  0  0  0  0  0  0  0999 V2000
    8.7944   13.6857    5.0254 C   0  0  0  0  0  0  0  0  0  3
    8.1432   14.0576    5.0254 F   0  0  0  0  0  0  0  0  0  4
    8.8132   12.2798    5.0254 C   0  0  0  0  0  0  0  0  0  5
   11.2308   13.6892    5.0254 C   0  0  0  0  0  0  0  0  0  6
    7.8843   11.7196    5.0254 H   0  0  0  0  0  0  0  0  0  7
   10.0149   14.3837    5.0254 C   0  0  0  0  0  0  0  0  0  8
   10.0292   11.5853    5.0254 C   0  0  0  0  0  0  0  0  0  9
   10.0255   15.4684    5.0254 H   0  0  0  0  0  0  0  0  0 10
   11.2497   12.2833    5.0254 C   0  0  0  0  0  0  0  0  0 11
   15.6933    9.7453    5.0254 F   0  0  0  0  0  0  0  0  0 12
   12.5868   11.5196    5.0254 C   0  0  0  0  0  0  0  0  0 13
   12.6056   10.1138    5.0254 C   0  0  0  0  0  0  0  0  0 14
   15.0232   11.5231    5.0254 C   0  0  0  0  0  0  0  0  0 15
   11.6767    9.5535    5.0254 H   0  0  0  0  0  0  0  0  0 16
   13.8072   12.2176    5.0254 C   0  0  0  0  0  0  0  0  0 17
   13.8216    9.4193    5.0254 C   0  0  0  0  0  0  0  0  0 18
   13.8179   13.3024    5.0254 H   0  0  0  0  0  0  0  0  0 19
   15.0420   10.1173    5.0254 C   0  0  0  0  0  0  0  0  0 20
   13.8109    8.3346    5.0254 H   0  0  0  0  0  0  0  0  0 22
   10.0186   10.5006    5.0254 H   0  0  0  0  0  0  0  0  0 23
   15.9521   12.0834    5.0254 H   0  0  0  0  0  0  0  0  0 25
   12.1598   14.2494    5.0254 H   0  0  0  0  0  0  0  0  0 26
  1  3  4  0  0  0
  1  2  1  0  0  0
  1  6  4  0  0  0
  3  5  1  0  0  0
  3  7  4  0  0  0
  4  9  4  0  0  0
  4  6  4  0  0  0
  6  8  1  0  0  0
  7  9  4  0  0  0
 10 18  1  0  0  0
 11 15  4  0  0  0
 11 12  4  0  0  0
 12 14  1  0  0  0
 12 16  4  0  0  0
 13 15  4  0  0  0
 13 18  4  0  0  0
 15 17  1  0  0  0
 16 18  4  0  0  0
  4 22  1  0  0  0
  7 20  1  0  0  0
  9 11  1  0  0  0
 13 21  1  0  0  0
 16 19  1  0  0  0
M  $3D  2
M  $3D -9  9 C6-B11
M  $3D  1  2    0.7500    0.7500
M  $3D -9  9 B6-C341
M  $3D 10 18    0.7500    0.7500
M  END
