L23
  MatStudio         3D                             0

  6  5  0  0  0  0  0  0  0  0999 V2000
   28.1543   47.0388    8.0530 N   0  0  0  0  0  0  0  0  0  1
   27.6623   48.0407    8.6171 H   0  0  0  0  0  0  0  0  0  2
   28.9435   47.1568    6.9035 N   0  0  0  0  0  0  0  0  0  3
   29.4652   46.1578    6.3612 H   0  0  0  0  0  0  0  0  0  4
   28.1506   46.3748    8.4016 F   0  0  0  0  0  0  0  0  0  6
   28.9065   47.8060    6.5299 F   0  0  0  0  0  0  0  0  0  9
  1  2  1  0  0  0
  1  3  1  0  0  0
  3  4  1  0  0  0
  1  5  1  0  0  0
  3  6  1  0  0  0
M  $3D  2
M  $3D -9  9 B1-N1
M  $3D  5  1    0.7500    0.7500
M  $3D -9  9 N2-B1
M  $3D  3  6    0.7500    0.7500
M  END
