L24
  MatStudio         3D                             0

  8  7  0  0  0  0  0  0  0  0999 V2000
   28.1232   48.2646    7.3789 N   0  0  0  0  0  0  0  0  0  1
   27.6312   49.2665    7.9430 O   0  0  0  0  0  0  0  0  0  2
   28.9124   48.3825    6.2294 N   0  0  0  0  0  0  0  0  0  3
   29.4342   47.3836    5.6871 O   0  0  0  0  0  0  0  0  0  4
   28.4420   49.8633    8.4103 H   0  0  0  0  0  0  0  0  0  5
   30.5324   47.4076    5.8462 H   0  0  0  0  0  0  0  0  0  6
   28.1195   47.6005    7.7275 F   0  6  0  0  0  0  0  0  0  7
   28.8754   49.0318    5.8557 F   0  6  0  0  0  0  0  0  0  8
  1  2  1  0  0  0
  1  3  1  0  0  0
  3  4  1  0  0  0
  2  5  1  0  0  0
  4  6  1  0  0  0
  1  7  1  0  0  0
  3  8  1  0  0  0
M  $3D  2
M  $3D -9  9 B1-N2
M  $3D  8  3    0.7501    0.7501
M  $3D -9  9 N1-B1
M  $3D  1  7    0.7500    0.7500
M  END
