L26
  MatStudio         3D                             0

 13 14  0  0  0  0  0  0  0  0999 V2000
    8.0882   13.6490   -0.4000 N   0  0  0  0  0  0  0  0  0  1
    8.7980   12.4380    0.1775 C   0  0  0  0  0  0  0  0  0  2
   10.3052   12.4570    0.4258 N   0  0  0  0  0  0  0  0  0  3
   11.1309   13.6922    0.1153 C   0  0  0  0  0  0  0  0  0  4
   10.3964   14.9051   -0.4566 C   0  0  0  0  0  0  0  0  0  5
    8.9092   14.8704   -0.7071 C   0  0  0  0  0  0  0  0  0  6
    8.4623   16.2025   -1.2468 N   0  0  0  0  0  0  0  0  0  7
    9.7317   17.0433   -1.3067 C   0  0  0  0  0  0  0  0  0  8
   10.9422   16.2583   -0.8254 N   0  0  0  0  0  0  0  0  0  9
    8.4008   11.8247    0.3468 F   0  0  0  0  0  0  0  0  0 10
    9.7560   17.7580   -1.5328 F   0  0  0  0  0  0  0  0  0 13
   12.2541   13.6907    0.3099 H   0  0  0  0  0  0  0  0  0 16
   12.0255   16.4704   -0.7086 H   0  0  0  0  0  0  0  0  0 17
  1  6  4  0  0  0
  1  2  4  0  0  0
  2 10  1  0  0  0
  2  3  4  0  0  0
  3  4  4  0  0  0
  4 12  1  0  0  0
  4  5  4  0  0  0
  5  6  4  0  0  0
  5  9  4  0  0  0
  6  7  4  0  0  0
  7  8  4  0  0  0
  8  9  4  0  0  0
  8 11  1  0  0  0
  9 13  1  0  0  0
M  $3D  2
M  $3D -9  9 B2-C5
M  $3D 11  8    0.7500    0.7500
M  $3D -9  9 B1-C1
M  $3D 10  2    0.7500    0.7500
M  END
