L28
  MatStudio         3D                             0

  8  8  0  0  0  0  0  0  0  0999 V2000
   -1.1353    0.1953   -0.0753 C   0  0  0  0  0  0  0  0  0  1
   -0.1594   -0.7839   -0.0811 C   0  0  0  0  0  0  0  0  0  2
    0.8198    0.1919   -0.0588 C   0  0  0  0  0  0  0  0  0  3
   -0.1562    1.1711   -0.0530 C   0  0  0  0  0  0  0  0  0  4
   -0.1550    1.9210   -0.0423 F   0  0  0  0  0  0  0  0  0  6
    1.5698    0.1906   -0.0524 F   0  0  0  0  0  0  0  0  0  9
   -0.1606   -1.5338   -0.0918 F   0  0  0  0  0  0  0  0  0 12
   -1.8853    0.1966   -0.0817 F   0  0  0  0  0  0  0  0  0 15
  1  4  2  0  0  0
  1  8  1  0  0  0
  1  2  1  0  0  0
  2  3  2  0  0  0
  2  7  1  0  0  0
  3  4  1  0  0  0
  3  6  1  0  0  0
  4  5  1  0  0  0
M  $3D  4
M  $3D -9  9 B1-C4
M  $3D  5  4    0.7500    0.7500
M  $3D -9  9 B4-C1
M  $3D  8  1    0.7500    0.7500
M  $3D -9  9 B3-C2
M  $3D  7  2    0.7500    0.7500
M  $3D -9  9 B2-C3
M  $3D  6  3    0.7500    0.7500
M  END
