L32
  MatStudio         3D                             0

  9  9  0  0  0  0  0  0  0  0999 V2000
   -0.4403    0.1358    0.0002 C   0  0  0  0  0  0  0  0  0  1
    0.7790   -0.8145   -0.0001 C   0  0  0  0  0  0  0  0  0  2
    2.1295   -0.0352   -0.0003 C   0  0  0  0  0  0  0  0  0  3
    1.9187    1.4953    0.0003 C   0  0  0  0  0  0  0  0  0  4
    0.1535    1.8322    0.0005 S   0  0  0  0  0  0  0  0  0  5
    0.6218   -1.9436   -0.0002 H   0  0  0  0  0  0  0  0  0  6
    3.1853   -0.4651   -0.0007 H   0  0  0  0  0  0  0  0  0  7
   -1.1578   -0.0829    0.0002 F   0  0  0  0  0  0  0  0  0  9
    2.4675    2.0064    0.0003 F   0  0  0  0  0  0  0  0  0 12
  1  8  1  0  0  0
  1  5  4  0  0  0
  1  2  4  0  0  0
  2  3  4  0  0  0
  2  6  1  0  0  0
  3  7  1  0  0  0
  3  4  4  0  0  0
  4  5  4  0  0  0
  4  9  1  0  0  0
M  $3D  2
M  $3D -9  9 B1-C1
M  $3D  8  1    0.7500    0.7500
M  $3D -9  9 B2-C5
M  $3D  9  4    0.7500    0.7500
M  END
