L34
  MatStudio         3D                             0

 12 13  0  0  0  0  0  0  0  0999 V2000
   -3.4251    1.2142    0.0054 C   0  0  0  0  0  0  0  0  0  1
   -2.4946    0.0462   -0.4363 C   0  0  0  0  0  0  0  0  0  2
   -1.0841    0.5859   -0.2734 C   0  0  0  0  0  0  0  0  0  3
   -1.1627    1.9735    0.2357 C   0  0  0  0  0  0  0  0  0  4
   -2.5876    2.4332    0.4380 O   0  0  0  0  0  0  0  0  0  5
    0.2481    2.4986    0.4387 C   0  0  0  0  0  0  0  0  0  6
    1.1788    1.3269    0.0074 C   0  0  0  0  0  0  0  0  0  7
    0.3411    0.1118   -0.4365 O   0  0  0  0  0  0  0  0  0  8
   -4.1747    1.1898    0.0046 F   0  0  0  0  0  0  0  0  0  9
   -2.8053   -0.9912   -0.8017 H   0  0  0  0  0  0  0  0  0 10
    0.5593    3.5288    0.8256 H   0  0  0  0  0  0  0  0  0 11
    1.9284    1.3508    0.0097 F   0  0  0  0  0  0  0  0  0 12
  1  9  1  0  0  0
  1  5  4  0  0  0
  1  2  4  0  0  0
  2  3  4  0  0  0
  2 10  1  0  0  0
  3  8  4  0  0  0
  3  4  4  0  0  0
  4  5  4  0  0  0
  4  6  4  0  0  0
  6 11  1  0  0  0
  6  7  4  0  0  0
  7 12  1  0  0  0
  7  8  4  0  0  0
M  $3D  2
M  $3D -9  9 B1-C1
M  $3D  9  1    0.7500    0.7500
M  $3D -9  9 B2-C6
M  $3D 12  7    0.7500    0.7500
M  END
