L35
  MatStudio         3D                             0

 12 13  0  0  0  0  0  0  0  0999 V2000
   -2.0597    0.4835    0.0002 C   0  0  0  0  0  0  0  0  0  1
   -1.1545   -0.7624    0.0002 C   0  0  0  0  0  0  0  0  0  2
    0.3101   -0.2865    0.0002 C   0  0  0  0  0  0  0  0  0  3
    0.3101    1.2535    0.0002 C   0  0  0  0  0  0  0  0  0  4
   -1.1545    1.7294    0.0002 S   0  0  0  0  0  0  0  0  0  5
    1.7747    1.7294    0.0002 C   0  0  0  0  0  0  0  0  0  6
    2.6799    0.4835    0.0002 C   0  0  0  0  0  0  0  0  0  7
    1.7747   -0.7624    0.0002 S   0  0  0  0  0  0  0  0  0  8
   -2.8056    0.4053    0.0001 F   0  0  0  0  0  0  0  0  0  9
    3.4259    0.5615    0.0005 F   0  0  0  0  0  0  0  0  0 10
   -1.3915   -1.8775    0.0002 H   0  0  0  0  0  0  0  0  0 15
    2.2384    2.7708    0.0002 H   0  0  0  0  0  0  0  0  0 16
  1  5  4  0  0  0
  1  2  4  0  0  0
  1  9  1  0  0  0
  2 11  1  0  0  0
  2  3  4  0  0  0
  3  8  4  0  0  0
  3  4  4  0  0  0
  4  6  4  0  0  0
  4  5  4  0  0  0
  6  7  4  0  0  0
  6 12  1  0  0  0
  7 10  1  0  0  0
  7  8  4  0  0  0
M  $3D  2
M  $3D -9  9 B1-C1
M  $3D  9  1    0.7500    0.7500
M  $3D -9  9 B2-C6
M  $3D 10  7    0.7500    0.7500
M  END
