L39
  MatStudio         3D                             0

 15 16  0  0  0  0  0  0  0  0999 V2000
   -1.3577    1.3962   -0.0108 C   0  0  0  0  0  0  0  0  0  1
   -0.5701    0.0658   -0.0155 C   0  0  0  0  0  0  0  0  0  2
    0.9815    0.0658   -0.0151 C   0  0  0  0  0  0  0  0  0  3
    1.7699    1.3959   -0.0110 C   0  0  0  0  0  0  0  0  0  4
    0.9844    2.7131   -0.0051 C   0  0  0  0  0  0  0  0  0  5
   -0.5718    2.7132   -0.0049 C   0  0  0  0  0  0  0  0  0  6
   -1.1814    4.1389    0.0068 C   0  0  0  0  0  0  0  0  0  7
    0.2064    5.2668    0.0190 S   0  0  0  0  0  0  0  0  0  8
    1.5938    4.1387    0.0078 C   0  0  0  0  0  0  0  0  0  9
   -1.9098    4.3176    0.0070 F   0  0  0  0  0  0  0  0  0 10
    2.3222    4.3175    0.0074 F   0  0  0  0  0  0  0  0  0 11
   -2.4976    1.4126   -0.0117 H   0  0  0  0  0  0  0  0  0 16
   -1.1292   -0.9276   -0.0194 H   0  0  0  0  0  0  0  0  0 17
    1.5514   -0.9215   -0.0178 H   0  0  0  0  0  0  0  0  0 18
    2.9098    1.3829   -0.0124 H   0  0  0  0  0  0  0  0  0 19
  1 12  1  0  0  0
  1  6  4  0  0  0
  1  2  4  0  0  0
  2  3  4  0  0  0
  2 13  1  0  0  0
  3 14  1  0  0  0
  3  4  4  0  0  0
  4 15  1  0  0  0
  4  5  4  0  0  0
  5  6  4  0  0  0
  5  9  4  0  0  0
  6  7  4  0  0  0
  7 10  1  0  0  0
  7  8  4  0  0  0
  8  9  4  0  0  0
  9 11  1  0  0  0
M  $3D  2
M  $3D -9  9 B1-C7
M  $3D 10  7    0.7500    0.7500
M  $3D -9  9 C8-B2
M  $3D  9 11    0.7500    0.7500
M  END
