L40
  MatStudio         3D                             0

 16 17  0  0  0  0  0  0  0  0999 V2000
   -1.3542    1.1703    0.0000 C   0  0  0  0  0  0  0  0  0  1
   -0.5842   -0.1634    0.0000 C   0  0  0  0  0  0  0  0  0  2
    0.9558   -0.1634    0.0000 C   0  0  0  0  0  0  0  0  0  3
    1.7258    1.1703    0.0000 C   0  0  0  0  0  0  0  0  0  4
    0.9558    2.5040    0.0000 C   0  0  0  0  0  0  0  0  0  5
   -0.5842    2.5040    0.0000 C   0  0  0  0  0  0  0  0  0  6
   -1.0057    3.9720    0.0008 N   0  0  0  0  0  0  0  0  0  7
    0.1859    4.7871    0.0002 C   0  0  0  0  0  0  0  0  0  8
    1.3774    3.9718    0.0015 C   0  0  0  0  0  0  0  0  0  9
   -1.1542   -1.1506    0.0000 H   0  0  0  0  0  0  0  0  0 10
    1.5258   -1.1506    0.0000 H   0  0  0  0  0  0  0  0  0 11
   -2.0828    4.2401    0.0018 H   0  0  0  0  0  0  0  0  0 12
    0.0989    5.9238   -0.0012 H   0  0  0  0  0  0  0  0  0 13
    2.4836    4.2471    0.0034 H   0  0  0  0  0  0  0  0  0 14
    2.4758    1.1703    0.0000 F   0  0  0  0  0  0  0  0  0 16
   -2.1042    1.1703    0.0000 F   0  0  0  0  0  0  0  0  0 19
  1 16  1  0  0  0
  1  6  4  0  0  0
  1  2  4  0  0  0
  2  3  4  0  0  0
  2 10  1  0  0  0
  3 11  1  0  0  0
  3  4  4  0  0  0
  4 15  1  0  0  0
  4  5  4  0  0  0
  5  6  4  0  0  0
  5  9  4  0  0  0
  6  7  4  0  0  0
  7 12  1  0  0  0
  7  8  4  0  0  0
  8  9  4  0  0  0
  8 13  1  0  0  0
  9 14  1  0  0  0
M  $3D  2
M  $3D -9  9 B2-C1
M  $3D 16  1    0.7500    0.7500
M  $3D -9  9 C4-B1
M  $3D  4 15    0.7500    0.7500
M  END
