L41
  MatStudio         3D                             0

 15 16  0  0  0  0  0  0  0  0999 V2000
   -1.3786    1.1927   -0.0807 C   0  0  0  0  0  0  0  0  0  1
   -0.5918   -0.1280   -0.2651 C   0  0  0  0  0  0  0  0  0  2
    0.9637   -0.1291   -0.2649 C   0  0  0  0  0  0  0  0  0  3
    1.7478    1.1917   -0.0806 C   0  0  0  0  0  0  0  0  0  4
    0.9375    2.4780    0.1006 C   0  0  0  0  0  0  0  0  0  5
   -0.5771    2.4863    0.1029 C   0  0  0  0  0  0  0  0  0  6
   -1.0939    3.8988    0.3077 O   0  0  0  0  0  0  0  0  0  7
    0.1450    4.7793    0.4359 C   0  0  0  0  0  0  0  0  0  8
    1.4133    3.9123    0.3100 C   0  0  0  0  0  0  0  0  0  9
   -2.1286    1.1984   -0.0808 F   0  0  0  0  0  0  0  0  0 10
   -1.1578   -1.1080   -0.4019 H   0  0  0  0  0  0  0  0  0 11
    1.5296   -1.1092   -0.4018 H   0  0  0  0  0  0  0  0  0 12
    2.4977    1.2012   -0.0799 F   0  0  0  0  0  0  0  0  0 13
    2.4938    4.2717    0.3625 H   0  0  0  0  0  0  0  0  0 18
    0.1346    5.9073    0.6009 H   0  0  0  0  0  0  0  0  0 19
  1 10  1  0  0  0
  1  2  4  0  0  0
  1  6  4  0  0  0
  2  3  4  0  0  0
  2 11  1  0  0  0
  3 12  1  0  0  0
  3  4  4  0  0  0
  4 13  1  0  0  0
  4  5  4  0  0  0
  5  6  4  0  0  0
  5  9  4  0  0  0
  6  7  4  0  0  0
  7  8  4  0  0  0
  8  9  4  0  0  0
  8 15  1  0  0  0
  9 14  1  0  0  0
M  $3D  2
M  $3D -9  9 B1-C1
M  $3D 10  1    0.7500    0.7500
M  $3D -9  9 C4-B2
M  $3D  4 13    0.7500    0.7500
M  END
