L45
  MatStudio         3D                             0

 54 59  0  0  0  0  0  0  0  0999 V2000
    1.4573   -0.4372    0.0009 C   0  0  0  0  0  0  0  0  0  1
    2.3996   -1.9768   -0.1682 S   0  0  0  0  0  0  0  0  0  2
    4.0341   -1.2108   -0.0351 C   0  0  0  0  0  0  0  0  0  3
    4.0358    0.3304    0.0377 C   0  0  0  0  0  0  0  0  0  4
    2.4033    1.1002    0.1704 S   0  0  0  0  0  0  0  0  0  5
    5.3088    1.1987   -0.0679 C   0  0  0  0  0  0  0  0  0  6
    6.6396    0.6111   -0.5729 C   0  0  0  0  0  0  0  0  0  7
    6.6378   -1.4972    0.5751 C   0  0  0  0  0  0  0  0  0  8
    5.3055   -2.0818    0.0703 C   0  0  0  0  0  0  0  0  0  9
    5.2242   -3.5733   -0.3008 C   0  0  0  0  0  0  0  0  0 10
    6.4966   -4.4396   -0.2987 C   0  0  0  0  0  0  0  0  0 11
    7.8493   -3.8219    0.0958 C   0  0  0  0  0  0  0  0  0 12
    7.9169   -2.3550    0.5575 C   0  0  0  0  0  0  0  0  0 13
    7.9204    1.4664   -0.5563 C   0  0  0  0  0  0  0  0  0 14
    7.8560    2.9341   -0.0954 C   0  0  0  0  0  0  0  0  0 15
    6.5047    3.5545    0.2997 C   0  0  0  0  0  0  0  0  0 16
    5.2307    2.6905    0.3027 C   0  0  0  0  0  0  0  0  0 17
    8.4724   -4.2384    0.0657 F   0  0  0  0  0  0  0  0  0 18
    8.4797    3.3496   -0.0660 F   0  0  0  0  0  0  0  0  0 19
    4.2206   -4.0379   -0.5778 H   0  0  0  0  0  0  0  0  0 24
    6.4373   -5.5403   -0.5896 H   0  0  0  0  0  0  0  0  0 25
    8.9107   -1.9033    0.8860 H   0  0  0  0  0  0  0  0  0 26
    8.9132    1.0126   -0.8847 H   0  0  0  0  0  0  0  0  0 27
    6.4462    4.6552    0.5908 H   0  0  0  0  0  0  0  0  0 28
    4.2283    3.1572    0.5799 H   0  0  0  0  0  0  0  0  0 29
   -0.0844   -0.4358    0.0004 C   0  0  0  0  0  0  0  0  0 30
   -1.0269    1.1034    0.1697 S   0  0  0  0  0  0  0  0  0 31
   -2.6613    0.3376    0.0363 C   0  0  0  0  0  0  0  0  0 32
   -2.6628   -1.2037   -0.0363 C   0  0  0  0  0  0  0  0  0 33
   -1.0300   -1.9734   -0.1686 S   0  0  0  0  0  0  0  0  0 34
   -3.9362   -2.0716    0.0691 C   0  0  0  0  0  0  0  0  0 35
   -5.2674   -1.4840    0.5736 C   0  0  0  0  0  0  0  0  0 36
   -5.2645    0.6242   -0.5753 C   0  0  0  0  0  0  0  0  0 37
   -3.9327    1.2086   -0.0690 C   0  0  0  0  0  0  0  0  0 38
   -3.8521    2.6998    0.3034 C   0  0  0  0  0  0  0  0  0 39
   -5.1245    3.5662    0.3009 C   0  0  0  0  0  0  0  0  0 40
   -6.4769    2.9484   -0.0951 C   0  0  0  0  0  0  0  0  0 41
   -6.5438    1.4817   -0.5581 C   0  0  0  0  0  0  0  0  0 42
   -6.5482   -2.3395    0.5568 C   0  0  0  0  0  0  0  0  0 43
   -6.4834   -3.8071    0.0960 C   0  0  0  0  0  0  0  0  0 44
   -5.1317   -4.4274   -0.2985 C   0  0  0  0  0  0  0  0  0 45
   -3.8580   -3.5632   -0.3013 C   0  0  0  0  0  0  0  0  0 46
   -7.1001    3.3647   -0.0651 F   0  0  0  0  0  0  0  0  0 47
   -7.1072   -4.2224    0.0663 F   0  0  0  0  0  0  0  0  0 48
   -2.8490    3.1644    0.5817 H   0  0  0  0  0  0  0  0  0 53
   -5.0654    4.6666    0.5927 H   0  0  0  0  0  0  0  0  0 54
   -7.5372    1.0300   -0.8878 H   0  0  0  0  0  0  0  0  0 55
   -7.5412   -1.8857    0.8850 H   0  0  0  0  0  0  0  0  0 56
   -5.0728   -5.5281   -0.5892 H   0  0  0  0  0  0  0  0  0 57
   -2.8555   -4.0299   -0.5784 H   0  0  0  0  0  0  0  0  0 58
    6.6790   -0.4602   -0.9607 H   0  0  0  0  0  0  0  0  0 59
    6.6753   -0.4258    0.9627 H   0  0  0  0  0  0  0  0  0 60
   -5.3071   -0.4126    0.9612 H   0  0  0  0  0  0  0  0  0 61
   -5.3058   -0.4465   -0.9646 H   0  0  0  0  0  0  0  0  0 62
  1 26  2  0  0  0
  1  5  1  0  0  0
  1  2  1  0  0  0
  2  3  1  0  0  0
  3  4  2  0  0  0
  3  9  1  0  0  0
  4  5  1  0  0  0
  4  6  1  0  0  0
  6  7  4  0  0  0
  6 17  4  0  0  0
  7 14  4  0  0  0
  7 51  1  0  0  0
  8 13  4  0  0  0
  8 52  1  0  0  0
  8  9  4  0  0  0
  9 10  4  0  0  0
 10 20  1  0  0  0
 10 11  4  0  0  0
 11 21  1  0  0  0
 11 12  4  0  0  0
 12 18  1  0  0  0
 12 13  4  0  0  0
 13 22  1  0  0  0
 14 23  1  0  0  0
 14 15  4  0  0  0
 15 19  1  0  0  0
 15 16  4  0  0  0
 16 24  1  0  0  0
 16 17  4  0  0  0
 17 25  1  0  0  0
 26 27  1  0  0  0
 26 30  1  0  0  0
 27 28  1  0  0  0
 28 34  1  0  0  0
 28 29  2  0  0  0
 29 30  1  0  0  0
 29 31  1  0  0  0
 31 32  4  0  0  0
 31 42  4  0  0  0
 32 53  1  0  0  0
 32 39  4  0  0  0
 33 34  4  0  0  0
 33 38  4  0  0  0
 33 54  1  0  0  0
 34 35  4  0  0  0
 35 36  4  0  0  0
 35 45  1  0  0  0
 36 46  1  0  0  0
 36 37  4  0  0  0
 37 43  1  0  0  0
 37 38  4  0  0  0
 38 47  1  0  0  0
 39 48  1  0  0  0
 39 40  4  0  0  0
 40 44  1  0  0  0
 40 41  4  0  0  0
 41 42  4  0  0  0
 41 49  1  0  0  0
 42 50  1  0  0  0
M  $3D  4
M  $3D -9  9 B3-C25
M  $3D 43 37    0.7500    0.7500
M  $3D -9  9 B4-C28
M  $3D 44 40    0.7500    0.7500
M  $3D -9  9 C10-B1
M  $3D 12 18    0.7500    0.7500
M  $3D -9  9 C13-B2
M  $3D 15 19    0.7500    0.7500
M  END
