L58
  MatStudio         3D                             0

 66 72  0  0  0  0  0  0  0  0999 V2000
   28.4010   42.6015   30.1662 C   0  0  0  0  0  0  0  0  0  1
   28.4010   42.6015   26.6358 C   0  0  0  0  0  0  0  0  0  2
   29.2867   41.6687   29.2867 C   0  0  0  0  0  0  0  0  0  3
   30.1662   42.6015   28.4010 C   0  0  0  0  0  0  0  0  0  4
   30.8294   41.9630   27.7286 H   0  0  0  0  0  0  0  0  0  5
   30.8243   43.2500   29.0688 H   0  0  0  0  0  0  0  0  0  6
   27.5153   43.5343   29.2867 C   0  0  0  0  0  0  0  0  0  7
   26.6358   42.6015   28.4010 C   0  0  0  0  0  0  0  0  0  8
   25.9726   43.2400   27.7286 H   0  0  0  0  0  0  0  0  0  9
   25.9777   41.9530   29.0688 H   0  0  0  0  0  0  0  0  0 10
   27.5153   41.6687   27.5153 C   0  0  0  0  0  0  0  0  0 11
   27.7189   43.2349   25.9777 H   0  0  0  0  0  0  0  0  0 12
   28.4010   40.8013   28.4010 C   0  0  0  0  0  0  0  0  0 13
   29.0546   40.1432   27.7382 H   0  0  0  0  0  0  0  0  0 14
   27.7444   40.1401   29.0576 H   0  0  0  0  0  0  0  0  0 15
   28.4010   44.4016   28.4010 C   0  0  0  0  0  0  0  0  0 16
   29.0734   41.9630   25.9726 H   0  0  0  0  0  0  0  0  0 17
   29.2867   43.5343   27.5153 C   0  0  0  0  0  0  0  0  0 18
   27.7474   45.0598   27.7382 H   0  0  0  0  0  0  0  0  0 19
   29.0576   45.0629   29.0576 H   0  0  0  0  0  0  0  0  0 20
   27.7286   41.9630   30.8294 H   0  0  0  0  0  0  0  0  0 21
   29.0831   43.2349   30.8243 H   0  0  0  0  0  0  0  0  0 22
   29.9467   41.0140   29.9467 C   0  0  0  0  0  0  0  0  0 23
   26.8553   44.1890   29.9467 C   0  0  0  0  0  0  0  0  0 24
   26.8553   41.0140   26.8553 C   0  0  0  0  0  0  0  0  0 25
   29.9467   44.1890   26.8553 C   0  0  0  0  0  0  0  0  0 26
   27.4232   44.7950   31.2435 C   0  0  0  0  0  0  0  0  0 27
   26.5318   45.6794   32.1350 C   0  0  0  0  0  0  0  0  0 28
   25.0724   45.9578   31.7296 C   0  0  0  0  0  0  0  0  0 29
   24.5045   45.3518   30.4327 C   0  0  0  0  0  0  0  0  0 30
   25.3960   44.4674   29.5413 C   0  0  0  0  0  0  0  0  0 31
   29.3788   44.7950   25.5585 C   0  0  0  0  0  0  0  0  0 32
   30.2702   45.6794   24.6670 C   0  0  0  0  0  0  0  0  0 33
   31.7296   45.9578   25.0724 C   0  0  0  0  0  0  0  0  0 34
   32.2975   45.3518   26.3693 C   0  0  0  0  0  0  0  0  0 35
   31.4060   44.4674   27.2607 C   0  0  0  0  0  0  0  0  0 36
   29.3788   40.4080   31.2435 C   0  0  0  0  0  0  0  0  0 37
   30.2702   39.5236   32.1350 C   0  0  0  0  0  0  0  0  0 38
   31.7296   39.2452   31.7296 C   0  0  0  0  0  0  0  0  0 39
   32.2975   39.8512   30.4327 C   0  0  0  0  0  0  0  0  0 40
   31.4060   40.7356   29.5413 C   0  0  0  0  0  0  0  0  0 41
   27.4232   40.4080   25.5585 C   0  0  0  0  0  0  0  0  0 42
   26.5318   39.5236   24.6670 C   0  0  0  0  0  0  0  0  0 43
   25.0724   39.2452   25.0724 C   0  0  0  0  0  0  0  0  0 44
   24.5045   39.8512   26.3693 C   0  0  0  0  0  0  0  0  0 45
   25.3960   40.7356   27.2607 C   0  0  0  0  0  0  0  0  0 46
   28.5035   44.5889   31.5436 H   0  0  0  0  0  0  0  0  0 47
   26.9522   46.1280   33.0950 H   0  0  0  0  0  0  0  0  0 48
   23.4242   45.5579   30.1326 H   0  0  0  0  0  0  0  0  0 49
   24.9756   44.0188   28.5812 H   0  0  0  0  0  0  0  0  0 50
   28.2984   44.5889   25.2584 H   0  0  0  0  0  0  0  0  0 51
   29.8498   46.1280   23.7070 H   0  0  0  0  0  0  0  0  0 52
   33.3778   45.5579   26.6694 H   0  0  0  0  0  0  0  0  0 53
   31.8264   44.0188   28.2208 H   0  0  0  0  0  0  0  0  0 54
   28.2984   40.6141   31.5436 H   0  0  0  0  0  0  0  0  0 55
   29.8498   39.0750   33.0950 H   0  0  0  0  0  0  0  0  0 56
   33.3778   39.6451   30.1326 H   0  0  0  0  0  0  0  0  0 57
   31.8264   41.1842   28.5812 H   0  0  0  0  0  0  0  0  0 58
   28.5036   40.6141   25.2584 H   0  0  0  0  0  0  0  0  0 59
   26.9522   39.0750   23.7070 H   0  0  0  0  0  0  0  0  0 60
   23.4242   39.6451   26.6694 H   0  0  0  0  0  0  0  0  0 61
   24.9756   41.1842   28.2208 H   0  0  0  0  0  0  0  0  0 62
   24.6383   46.3885   32.1637 F   0  6  0  0  0  0  0  0  0 63
   32.1637   46.3885   24.6383 F   0  6  0  0  0  0  0  0  0 64
   32.1637   38.8145   32.1637 F   0  6  0  0  0  0  0  0  0 65
   24.6383   38.8145   24.6383 F   0  6  0  0  0  0  0  0  0 66
  1 22  1  0  0  0
  1 21  1  0  0  0
  1  7  1  0  0  0
  1  3  1  0  0  0
  2 18  1  0  0  0
  2 11  1  0  0  0
  2 12  1  0  0  0
  2 17  1  0  0  0
  3 13  1  0  0  0
  3 23  1  0  0  0
  3  4  1  0  0  0
  4  6  1  0  0  0
  4 18  1  0  0  0
  4  5  1  0  0  0
  7  8  1  0  0  0
  7 24  1  0  0  0
  7 16  1  0  0  0
  8 10  1  0  0  0
  8  9  1  0  0  0
  8 11  1  0  0  0
 11 25  1  0  0  0
 11 13  1  0  0  0
 13 15  1  0  0  0
 13 14  1  0  0  0
 16 20  1  0  0  0
 16 19  1  0  0  0
 16 18  1  0  0  0
 18 26  1  0  0  0
 23 41  4  0  0  0
 23 37  4  0  0  0
 24 31  4  0  0  0
 24 27  4  0  0  0
 25 46  4  0  0  0
 25 42  4  0  0  0
 26 36  4  0  0  0
 26 32  4  0  0  0
 27 47  1  0  0  0
 27 28  4  0  0  0
 28 48  1  0  0  0
 28 29  4  0  0  0
 29 30  4  0  0  0
 29 63  1  0  0  0
 30 49  1  0  0  0
 30 31  4  0  0  0
 31 50  1  0  0  0
 32 51  1  0  0  0
 32 33  4  0  0  0
 33 52  1  0  0  0
 33 34  4  0  0  0
 34 35  4  0  0  0
 34 64  1  0  0  0
 35 53  1  0  0  0
 35 36  4  0  0  0
 36 54  1  0  0  0
 37 55  1  0  0  0
 37 38  4  0  0  0
 38 56  1  0  0  0
 38 39  4  0  0  0
 39 40  4  0  0  0
 39 65  1  0  0  0
 40 57  1  0  0  0
 40 41  4  0  0  0
 41 58  1  0  0  0
 42 59  1  0  0  0
 42 43  4  0  0  0
 43 60  1  0  0  0
 43 44  4  0  0  0
 44 45  4  0  0  0
 44 66  1  0  0  0
 45 46  4  0  0  0
 45 61  1  0  0  0
 46 62  1  0  0  0
M  $3D  4
M  $3D -9  9 C17-B1
M  $3D 29 63    0.7499    0.7499
M  $3D -9  9 C22-B2
M  $3D 34 64    0.7499    0.7499
M  $3D -9  9 C27-B3
M  $3D 39 65    0.7499    0.7499
M  $3D -9  9 C32-B4
M  $3D 44 66    0.7499    0.7499
M  END
