L62
  MatStudio         3D                             0

101 116  0  0  0  0  0  0  0  0999 V2000
   28.0534   22.4429   11.2211 C   0  0  0  0  0  0  0  0  0  1
   31.5452   27.8354   13.3001 C   0  0  0  0  0  0  0  0  0  2
   31.6533   27.0513   12.1241 C   0  0  0  0  0  0  0  0  0  3
   32.6552   27.3610   11.1694 C   0  0  0  0  0  0  0  0  0  4
   33.5278   28.4526   11.3790 C   0  0  0  0  0  0  0  0  0  5
   33.4093   29.2471   12.5483 C   0  0  0  0  0  0  0  0  0  6
   32.4133   28.9320   13.5079 C   0  0  0  0  0  0  0  0  0  7
   32.3143   29.5669   14.4496 H   0  0  0  0  0  0  0  0  0  8
   34.3302   28.6973   10.6071 H   0  0  0  0  0  0  0  0  0  9
   24.4542   21.5404   15.8298 C   0  0  0  0  0  0  0  0  0 10
   24.5623   20.3644   16.6139 C   0  0  0  0  0  0  0  0  0 11
   23.4523   22.4951   16.1395 C   0  0  0  0  0  0  0  0  0 12
   22.5797   22.2855   17.2311 C   0  0  0  0  0  0  0  0  0 13
   22.6982   21.1162   18.0256 C   0  0  0  0  0  0  0  0  0 14
   23.6943   20.1566   17.7105 C   0  0  0  0  0  0  0  0  0 15
   23.7932   19.2149   18.3454 H   0  0  0  0  0  0  0  0  0 16
   21.7773   23.0574   17.4758 H   0  0  0  0  0  0  0  0  0 17
   31.6533   17.8347   10.3189 C   0  0  0  0  0  0  0  0  0 18
   31.5452   17.0506    9.1429 C   0  0  0  0  0  0  0  0  0 19
   32.6552   17.5250   11.2736 C   0  0  0  0  0  0  0  0  0 20
   33.5278   16.4334   11.0640 C   0  0  0  0  0  0  0  0  0 21
   33.4093   15.6389    9.8947 C   0  0  0  0  0  0  0  0  0 22
   32.4133   15.9540    8.9351 C   0  0  0  0  0  0  0  0  0 23
   32.3143   15.3192    7.9934 H   0  0  0  0  0  0  0  0  0 24
   34.3302   16.1887   11.8359 H   0  0  0  0  0  0  0  0  0 25
   27.0952   22.7208    9.9791 C   0  0  0  0  0  0  0  0  0 26
   24.4542   23.3456    6.6132 C   0  0  0  0  0  0  0  0  0 27
   27.1506   23.9046    9.1836 C   0  0  0  0  0  0  0  0  0 28
   24.5623   24.5216    5.8291 C   0  0  0  0  0  0  0  0  0 29
   26.0755   21.7854    9.6361 C   0  0  0  0  0  0  0  0  0 30
   23.4523   22.3909    6.3035 C   0  0  0  0  0  0  0  0  0 31
   25.2066   21.9818    8.5283 C   0  0  0  0  0  0  0  0  0 32
   22.5797   22.6005    5.2119 C   0  0  0  0  0  0  0  0  0 33
   25.3242   23.1410    7.7329 C   0  0  0  0  0  0  0  0  0 34
   22.6982   23.7698    4.4174 C   0  0  0  0  0  0  0  0  0 35
   26.2958   24.1067    8.0668 C   0  0  0  0  0  0  0  0  0 36
   23.6943   24.7294    4.7325 C   0  0  0  0  0  0  0  0  0 37
   23.7932   25.6711    4.0976 H   0  0  0  0  0  0  0  0  0 38
   21.7773   21.8286    4.9672 H   0  0  0  0  0  0  0  0  0 39
   28.9574   24.4790   12.6835 C   0  0  0  0  0  0  0  0  0 40
   29.0111   23.6852   11.4994 C   0  0  0  0  0  0  0  0  0 41
   30.0324   24.0263   10.5670 C   0  0  0  0  0  0  0  0  0 42
   30.9031   25.1332   10.7632 C   0  0  0  0  0  0  0  0  0 43
   30.7850   25.9294   11.9215 C   0  0  0  0  0  0  0  0  0 44
   29.8133   25.5953   12.8870 C   0  0  0  0  0  0  0  0  0 45
   28.1956   24.1919   13.4815 H   0  0  0  0  0  0  0  0  0 46
   30.1740   23.4028    9.6232 H   0  0  0  0  0  0  0  0  0 47
   27.0953   22.1643   12.4626 C   0  0  0  0  0  0  0  0  0 48
   27.1528   20.9831   13.2602 C   0  0  0  0  0  0  0  0  0 49
   26.0755   23.0980   12.8051 C   0  0  0  0  0  0  0  0  0 50
   25.2077   22.9038   13.9146 C   0  0  0  0  0  0  0  0  0 51
   25.3260   21.7457   14.7111 C   0  0  0  0  0  0  0  0  0 52
   26.2986   20.7808   14.3779 C   0  0  0  0  0  0  0  0  0 53
   27.9025   20.1618   13.0091 H   0  0  0  0  0  0  0  0  0 54
   25.9331   24.0411   12.1806 H   0  0  0  0  0  0  0  0  0 55
   29.0116   21.2013   10.9428 C   0  0  0  0  0  0  0  0  0 56
   28.9558   20.4048    9.7611 C   0  0  0  0  0  0  0  0  0 57
   30.0330   20.8605   11.8758 C   0  0  0  0  0  0  0  0  0 58
   30.9019   19.7520   11.6811 C   0  0  0  0  0  0  0  0  0 59
   30.7836   18.9553   10.5231 C   0  0  0  0  0  0  0  0  0 60
   29.8114   19.2885    9.5581 C   0  0  0  0  0  0  0  0  0 61
   28.2063   20.6556    8.9395 H   0  0  0  0  0  0  0  0  0 62
   30.1756   21.4856   12.8184 H   0  0  0  0  0  0  0  0  0 63
   27.8986   24.7269    9.4365 H   0  0  0  0  0  0  0  0  0 64
   25.9355   20.8409   10.2589 H   0  0  0  0  0  0  0  0  0 65
   26.3919   25.2681    7.2770 C   0  0  0  0  0  0  0  0  0 66
   25.5420   25.4705    6.1741 C   0  0  0  0  0  0  0  0  0 67
   30.5661   27.4895   14.2495 C   0  0  0  0  0  0  0  0  0 68
   29.7168   26.3857   14.0478 C   0  0  0  0  0  0  0  0  0 69
   32.7561   26.5556   10.0190 C   0  0  0  0  0  0  0  0  0 70
   31.8929   25.4613    9.8185 C   0  0  0  0  0  0  0  0  0 71
   30.5650   17.3955    8.1944 C   0  0  0  0  0  0  0  0  0 72
   29.7147   18.4982    8.3972 C   0  0  0  0  0  0  0  0  0 73
   25.5432   19.4163   16.2696 C   0  0  0  0  0  0  0  0  0 74
   26.3945   19.6195   15.1677 C   0  0  0  0  0  0  0  0  0 75
   23.3523   23.6461   15.3349 C   0  0  0  0  0  0  0  0  0 76
   24.2165   23.8475   14.2415 C   0  0  0  0  0  0  0  0  0 77
   30.4501   16.7779    7.2431 H   0  0  0  0  0  0  0  0  0 78
   28.9374   18.7471    7.6013 H   0  0  0  0  0  0  0  0  0 79
   27.1719   18.8237   14.9189 H   0  0  0  0  0  0  0  0  0 80
   25.6580   18.4649   16.8871 H   0  0  0  0  0  0  0  0  0 81
   24.1029   24.7944   13.6170 H   0  0  0  0  0  0  0  0  0 82
   22.5616   24.4348   15.5639 H   0  0  0  0  0  0  0  0  0 83
   30.4512   28.1072   15.2008 H   0  0  0  0  0  0  0  0  0 84
   28.9406   26.1359   14.8446 H   0  0  0  0  0  0  0  0  0 85
   32.0062   24.8370    8.8714 H   0  0  0  0  0  0  0  0  0 86
   33.5466   26.7848    9.2303 H   0  0  0  0  0  0  0  0  0 87
   31.8926   19.4245   12.6250 C   0  0  0  0  0  0  0  0  0 88
   32.7560   18.3303   12.4242 C   0  0  0  0  0  0  0  0  0 89
   32.0066   20.0492   13.5718 H   0  0  0  0  0  0  0  0  0 90
   33.5466   18.1011   13.2128 H   0  0  0  0  0  0  0  0  0 91
   24.2164   21.0376    8.2002 C   0  0  0  0  0  0  0  0  0 92
   23.3522   21.2395    7.1073 C   0  0  0  0  0  0  0  0  0 93
   27.1684   26.0645    7.5266 H   0  0  0  0  0  0  0  0  0 94
   25.6567   26.4217    5.5564 H   0  0  0  0  0  0  0  0  0 95
   24.1037   20.0898    8.8236 H   0  0  0  0  0  0  0  0  0 96
   22.5613   20.4511    6.8778 H   0  0  0  0  0  0  0  0  0 97
   22.2364   23.8766    3.8362 F   0  0  0  0  0  0  0  0  0 99
   33.8711   29.8283   12.6551 F   0  0  0  0  0  0  0  0  0102
   33.8711   15.0577    9.7879 F   0  0  0  0  0  0  0  0  0105
   22.2364   21.0094   18.6068 F   0  0  0  0  0  0  0  0  0108
  1 41  1  0  0  0
  1 56  1  0  0  0
  1 26  1  0  0  0
  1 48  1  0  0  0
  2  7  4  0  0  0
  2  3  4  0  0  0
  2 68  4  0  0  0
  3  4  4  0  0  0
  3 44  4  0  0  0
  4  5  4  0  0  0
  4 70  4  0  0  0
  5  9  1  0  0  0
  5  6  4  0  0  0
  6  7  4  0  0  0
  6 99  1  0  0  0
  7  8  1  0  0  0
 10 52  4  0  0  0
 10 12  4  0  0  0
 10 11  4  0  0  0
 11 74  4  0  0  0
 11 15  4  0  0  0
 12 13  4  0  0  0
 12 76  4  0  0  0
 13 17  1  0  0  0
 13 14  4  0  0  0
 14101  1  0  0  0
 14 15  4  0  0  0
 15 16  1  0  0  0
 18 60  4  0  0  0
 18 19  4  0  0  0
 18 20  4  0  0  0
 19 23  4  0  0  0
 19 72  4  0  0  0
 20 21  4  0  0  0
 20 89  4  0  0  0
 21 25  1  0  0  0
 21 22  4  0  0  0
 22100  1  0  0  0
 22 23  4  0  0  0
 23 24  1  0  0  0
 26 30  4  0  0  0
 26 28  4  0  0  0
 27 29  4  0  0  0
 27 31  4  0  0  0
 27 34  4  0  0  0
 28 64  1  0  0  0
 28 36  4  0  0  0
 29 67  4  0  0  0
 29 37  4  0  0  0
 30 65  1  0  0  0
 30 32  4  0  0  0
 31 33  4  0  0  0
 31 93  4  0  0  0
 32 34  4  0  0  0
 32 92  4  0  0  0
 33 39  1  0  0  0
 33 35  4  0  0  0
 34 36  4  0  0  0
 35 37  4  0  0  0
 35 98  1  0  0  0
 36 66  4  0  0  0
 37 38  1  0  0  0
 40 46  1  0  0  0
 40 45  4  0  0  0
 40 41  4  0  0  0
 41 42  4  0  0  0
 42 47  1  0  0  0
 42 43  4  0  0  0
 43 44  4  0  0  0
 43 71  4  0  0  0
 44 45  4  0  0  0
 45 69  4  0  0  0
 48 50  4  0  0  0
 48 49  4  0  0  0
 49 54  1  0  0  0
 49 53  4  0  0  0
 50 51  4  0  0  0
 50 55  1  0  0  0
 51 77  4  0  0  0
 51 52  4  0  0  0
 52 53  4  0  0  0
 53 75  4  0  0  0
 56 58  4  0  0  0
 56 57  4  0  0  0
 57 62  1  0  0  0
 57 61  4  0  0  0
 58 59  4  0  0  0
 58 63  1  0  0  0
 59 60  4  0  0  0
 59 88  4  0  0  0
 60 61  4  0  0  0
 61 73  4  0  0  0
 66 94  1  0  0  0
 66 67  4  0  0  0
 67 95  1  0  0  0
 68 84  1  0  0  0
 68 69  4  0  0  0
 69 85  1  0  0  0
 70 71  4  0  0  0
 70 87  1  0  0  0
 71 86  1  0  0  0
 72 78  1  0  0  0
 72 73  4  0  0  0
 73 79  1  0  0  0
 74 81  1  0  0  0
 74 75  4  0  0  0
 75 80  1  0  0  0
 76 77  4  0  0  0
 76 83  1  0  0  0
 77 82  1  0  0  0
 88 89  4  0  0  0
 88 90  1  0  0  0
 89 91  1  0  0  0
 92 93  4  0  0  0
 92 96  1  0  0  0
 93 97  1  0  0  0
M  $3D  4
M  $3D -9  9 C6-B2
M  $3D  6 99    0.7500    0.7500
M  $3D -9  9 C29-B1
M  $3D 35 98    0.7500    0.7500
M  $3D -9  9 C12-B4
M  $3D 14101    0.7500    0.7500
M  $3D -9  9 C18-B3
M  $3D 22100    0.7500    0.7500
M  END
