L65
  MatStudio         3D                             0

 60 65  0  0  0  0  0  0  0  0999 V2000
    6.4494   -2.7133   -0.0359 C   0  0  0  0  0  0  0  0  0  1
    5.6787   -4.0460   -0.0460 C   0  0  0  0  0  0  0  0  0  2
    5.6792    3.9515    0.0471 C   0  0  0  0  0  0  0  0  0  3
    6.4497    2.6187    0.0362 C   0  0  0  0  0  0  0  0  0  4
    7.9895    2.6178    0.0344 C   0  0  0  0  0  0  0  0  0  5
    8.7590    3.9515    0.0300 C   0  0  0  0  0  0  0  0  0  6
    7.9884    5.2848    0.0272 C   0  0  0  0  0  0  0  0  0  7
    6.4487    5.2850    0.0418 C   0  0  0  0  0  0  0  0  0  8
    6.4485   -5.3797   -0.0408 C   0  0  0  0  0  0  0  0  0  9
    7.9884   -5.3795   -0.0265 C   0  0  0  0  0  0  0  0  0 10
    8.7593   -4.0462   -0.0295 C   0  0  0  0  0  0  0  0  0 11
    7.9893   -2.7125   -0.0341 C   0  0  0  0  0  0  0  0  0 12
    8.5589    1.6301    0.0325 H   0  0  0  0  0  0  0  0  0 13
    9.8990    3.9522    0.0249 H   0  0  0  0  0  0  0  0  0 14
    8.3632    5.9343    0.0174 F   0  0  0  0  0  0  0  0  0 15
    5.8789    6.2724    0.0461 H   0  0  0  0  0  0  0  0  0 16
    5.8789   -6.3672   -0.0445 H   0  0  0  0  0  0  0  0  0 17
    8.3632   -6.0291   -0.0165 F   0  0  0  0  0  0  0  0  0 18
    9.8993   -4.0469   -0.0254 H   0  0  0  0  0  0  0  0  0 19
    8.5586   -1.7247   -0.0333 H   0  0  0  0  0  0  0  0  0 20
   -1.2474   -0.0470   -0.0000 C   0  0  0  0  0  0  0  0  0 25
   -0.4763   -4.0459   -0.0464 C   0  0  0  0  0  0  0  0  0 26
   -1.2467   -2.7129   -0.0363 C   0  0  0  0  0  0  0  0  0 27
   -1.2465    2.6186    0.0363 C   0  0  0  0  0  0  0  0  0 28
   -0.4757    3.9513    0.0466 C   0  0  0  0  0  0  0  0  0 29
   -1.2451    5.2853    0.0415 C   0  0  0  0  0  0  0  0  0 30
   -2.7849    5.2856    0.0268 C   0  0  0  0  0  0  0  0  0 31
   -3.5559    3.9523    0.0303 C   0  0  0  0  0  0  0  0  0 32
   -2.7861    2.6183    0.0347 C   0  0  0  0  0  0  0  0  0 33
   -2.7865   -2.7123   -0.0340 C   0  0  0  0  0  0  0  0  0 34
   -3.5563   -4.0458   -0.0297 C   0  0  0  0  0  0  0  0  0 35
   -2.7859   -5.3791   -0.0267 C   0  0  0  0  0  0  0  0  0 36
   -1.2462   -5.3795   -0.0414 C   0  0  0  0  0  0  0  0  0 37
   -0.6750    6.2726    0.0454 H   0  0  0  0  0  0  0  0  0 38
   -3.1597    5.9352    0.0169 F   0  0  0  0  0  0  0  0  0 39
   -4.6959    3.9529    0.0252 H   0  0  0  0  0  0  0  0  0 40
   -3.3555    1.6305    0.0339 H   0  0  0  0  0  0  0  0  0 41
   -3.3562   -1.7247   -0.0330 H   0  0  0  0  0  0  0  0  0 42
   -4.6963   -4.0464   -0.0253 H   0  0  0  0  0  0  0  0  0 43
   -3.1606   -6.0287   -0.0166 F   0  0  0  0  0  0  0  0  0 44
   -0.6767   -6.3671   -0.0458 H   0  0  0  0  0  0  0  0  0 45
   -0.4772   -1.3801   -0.0221 C   0  0  0  0  0  0  0  0  0 50
    1.0624   -1.3804   -0.0232 C   0  0  0  0  0  0  0  0  0 51
    1.8318   -0.0472   -0.0000 C   0  0  0  0  0  0  0  0  0 52
    1.0624    1.2861    0.0233 O   0  0  0  0  0  0  0  0  0 53
   -0.4771    1.2857    0.0220 C   0  0  0  0  0  0  0  0  0 54
    4.1402    1.2862    0.0231 C   0  0  0  0  0  0  0  0  0 55
    3.3708   -0.0473    0.0001 C   0  0  0  0  0  0  0  0  0 56
    4.1400   -1.3810   -0.0232 O   0  0  0  0  0  0  0  0  0 57
    5.6797   -1.3804   -0.0214 C   0  0  0  0  0  0  0  0  0 58
    5.6800    1.2859    0.0220 C   0  0  0  0  0  0  0  0  0 59
    6.4500   -0.0472    0.0003 C   0  0  0  0  0  0  0  0  0 60
    4.5387   -4.0447   -0.0534 H   0  0  0  0  0  0  0  0  0 61
    4.5391    3.9504    0.0548 H   0  0  0  0  0  0  0  0  0 62
   -2.3876   -0.0467   -0.0004 H   0  0  0  0  0  0  0  0  0 63
    1.6327   -2.3675   -0.0403 H   0  0  0  0  0  0  0  0  0 64
    3.5700    2.2733    0.0411 H   0  0  0  0  0  0  0  0  0 65
    7.5902   -0.0473    0.0006 H   0  0  0  0  0  0  0  0  0 66
    0.6637   -4.0449   -0.0535 H   0  0  0  0  0  0  0  0  0 67
    0.6644    3.9500    0.0533 H   0  0  0  0  0  0  0  0  0 68
  1 12  4  0  0  0
  1 50  1  0  0  0
  1  2  4  0  0  0
  2 53  1  0  0  0
  2  9  4  0  0  0
  3  8  4  0  0  0
  3 54  1  0  0  0
  3  4  4  0  0  0
  4  5  4  0  0  0
  4 51  1  0  0  0
  5  6  4  0  0  0
  5 13  1  0  0  0
  6  7  4  0  0  0
  6 14  1  0  0  0
  7  8  4  0  0  0
  7 15  1  0  0  0
  8 16  1  0  0  0
  9 17  1  0  0  0
  9 10  4  0  0  0
 10 18  1  0  0  0
 10 11  4  0  0  0
 11 19  1  0  0  0
 11 12  4  0  0  0
 12 20  1  0  0  0
 21 42  1  0  0  0
 21 55  1  0  0  0
 21 46  2  0  0  0
 22 59  1  0  0  0
 22 23  4  0  0  0
 22 33  4  0  0  0
 23 30  4  0  0  0
 23 42  1  0  0  0
 24 29  4  0  0  0
 24 25  4  0  0  0
 24 46  1  0  0  0
 25 26  4  0  0  0
 25 60  1  0  0  0
 26 27  4  0  0  0
 26 34  1  0  0  0
 27 28  4  0  0  0
 27 35  1  0  0  0
 28 36  1  0  0  0
 28 29  4  0  0  0
 29 37  1  0  0  0
 30 38  1  0  0  0
 30 31  4  0  0  0
 31 39  1  0  0  0
 31 32  4  0  0  0
 32 40  1  0  0  0
 32 33  4  0  0  0
 33 41  1  0  0  0
 42 43  2  0  0  0
 43 44  1  0  0  0
 43 56  1  0  0  0
 44 45  1  0  0  0
 44 48  2  0  0  0
 45 46  1  0  0  0
 47 51  2  0  0  0
 47 57  1  0  0  0
 47 48  1  0  0  0
 48 49  1  0  0  0
 49 50  1  0  0  0
 50 52  2  0  0  0
 51 52  1  0  0  0
 52 58  1  0  0  0
M  $3D  4
M  $3D -9  9 C19-B3
M  $3D 27 35    0.7500    0.7500
M  $3D -9  9 C7-B1
M  $3D  7 15    0.7500    0.7500
M  $3D -9  9 C10-B2
M  $3D 10 18    0.7500    0.7500
M  $3D -9  9 C24-B4
M  $3D 32 40    0.7500    0.7500
M  END
