L69
  MatStudio         3D                             0

 26 28  0  0  0  0  0  0  0  0999 V2000
    2.8469   74.9602   35.1401 C   0  0  0  0  0  0  0  0  0  1
    3.8738   73.9897   35.7014 C   0  0  0  0  0  0  0  0  0  2
    3.5352   73.6051   36.9650 C   0  0  0  0  0  0  0  0  0  3
    2.2060   74.2125   37.3832 C   0  0  0  0  0  0  0  0  0  4
    1.6352   74.8196   36.0843 C   0  0  0  0  0  0  0  0  0  5
    5.0638   73.6609   34.9069 C   0  0  0  0  0  0  0  0  0  6
    4.3277   72.8556   37.9477 C   0  0  0  0  0  0  0  0  0  7
    6.1398   72.8533   35.2952 C   0  0  0  0  0  0  0  0  0  8
    7.3261   72.7486   34.0292 S   0  3  0  0  0  0  0  0  0  9
    6.4021   73.7832   32.9668 C   0  0  0  0  0  0  0  0  0 10
    5.2217   74.1588   33.5814 C   0  0  0  0  0  0  0  0  0 11
    5.6064   72.3520   37.7075 C   0  0  0  0  0  0  0  0  0 12
    6.2905   71.6305   39.1360 S   0  0  0  0  0  0  0  0  0 13
    4.8630   72.0014   40.0790 C   0  0  0  0  0  0  0  0  0 14
    3.9224   72.6552   39.3018 C   0  0  0  0  0  0  0  0  0 15
    6.6706   73.9842   32.2960 F   0  0  0  0  0  0  0  0  0 16
    4.8400   71.8313   40.8091 F   0  0  0  0  0  0  0  0  0 17
    2.9021   73.0239   39.6520 H   0  0  0  0  0  0  0  0  0 21
    6.2822   73.2009   37.3579 H   0  0  0  0  0  0  0  0  0 22
    5.5546   71.5565   36.8925 H   0  0  0  0  0  0  0  0  0 23
    5.7561   71.8076   35.5375 H   0  0  0  0  0  0  0  0  0 24
    6.6323   73.2967   36.2228 H   0  0  0  0  0  0  0  0  0 25
    4.4091   74.8091   33.1162 H   0  0  0  0  0  0  0  0  0 26
    2.8037   75.6853   34.2615 H   0  0  0  0  0  0  0  0  0 27
    0.6000   75.1456   35.7355 H   0  0  0  0  0  0  0  0  0 28
    1.8626   74.1407   38.4679 H   0  0  0  0  0  0  0  0  0 29
  1 24  1  0  0  0
  1  2  2  0  0  0
  1  5  1  0  0  0
  2  6  1  0  0  0
  2  3  1  0  0  0
  3  7  2  0  0  0
  3  4  1  0  0  0
  4  5  2  0  0  0
  4 26  1  0  0  0
  5 25  1  0  0  0
  6  8  1  0  0  0
  6 11  2  0  0  0
  7 12  1  0  0  0
  7 15  1  0  0  0
  8 21  1  0  0  0
  8  9  1  0  0  0
  8 22  1  0  0  0
  9 10  2  0  0  0
 10 16  1  0  0  0
 10 11  1  0  0  0
 11 23  1  0  0  0
 12 19  1  0  0  0
 12 20  1  0  0  0
 12 13  1  0  0  0
 13 14  1  0  0  0
 14 15  2  0  0  0
 14 17  1  0  0  0
 15 18  1  0  0  0
M  $3D  2
M  $3D -9  9 C9-B1
M  $3D 10 16    0.7500    0.7500
M  $3D -9  9 C12-B2
M  $3D 14 17    0.7500    0.7500
M  END
