L70
  MatStudio         3D                             0

  9  9  0  0  0  0  0  0  0  0999 V2000
    1.5849   -1.7865   -1.9447 C   0  0  0  0  0  0  0  0  0  1
    1.5607   -1.3780   -0.4539 N   0  0  0  0  0  0  0  0  0  2
    2.8542   -0.6153   -0.0341 N   0  0  0  0  0  0  0  0  0  3
    3.8429   -0.4541   -1.2102 C   0  0  0  0  0  0  0  0  0  4
    3.1293   -1.2215   -2.6701 S   0  0  0  0  0  0  0  0  0  5
    1.0244   -2.1588   -2.2759 F   0  0  0  0  0  0  0  0  0  7
    4.5087   -0.1111   -1.1702 F   0  0  0  0  0  0  0  0  0  9
    2.7419   -0.3678    1.0422 H   0  0  0  0  0  0  0  0  0 12
    0.9205   -1.4418    0.4506 H   0  0  0  0  0  0  0  0  0 13
  1  2  1  0  0  0
  1  5  2  0  0  0
  1  6  1  0  0  0
  2  3  1  0  0  0
  2  9  1  0  0  0
  3  4  1  0  0  0
  3  8  1  0  0  0
  4  7  1  0  0  0
  4  5  2  0  0  0
M  $3D  2
M  $3D -9  9 C1-B1
M  $3D  1  6    0.7500    0.7500
M  $3D -9  9 C2-B2
M  $3D  4  7    0.7500    0.7500
M  END
