L71
  MatStudio         3D                             0

 23 25  0  0  0  0  0  0  0  0999 V2000
   28.0675   19.5931    3.2841 F   0  0  0  0  0  0  0  0  0  1
   28.0128   20.3407    3.2611 C   0  0  0  0  0  0  0  0  0  3
   26.8697   20.9258    3.3804 C   0  0  0  0  0  0  0  0  0  4
   26.8759   22.2387    3.3279 C   0  0  0  0  0  0  0  0  0  5
   27.9907   22.9146    3.1367 C   0  0  0  0  0  0  0  0  0  6
   29.1280   22.2729    3.0129 C   0  0  0  0  0  0  0  0  0  7
   29.1324   20.9809    3.0671 C   0  0  0  0  0  0  0  0  0  8
   30.0966   22.8541    2.8596 H   0  0  0  0  0  0  0  0  0 10
   30.1068   20.4016    2.9464 H   0  0  0  0  0  0  0  0  0 11
   25.9239   20.3055    3.5226 H   0  0  0  0  0  0  0  0  0 12
   27.6410   27.4888    3.4596 F   0  0  0  0  0  0  0  0  0 13
   27.7459   26.7466    3.4340 C   0  0  0  0  0  0  0  0  0 15
   28.9294   26.2123    3.2518 C   0  0  0  0  0  0  0  0  0 16
   29.0578   24.9200    3.2349 C   0  0  0  0  0  0  0  0  0 17
   28.0036   24.1587    3.3725 C   0  0  0  0  0  0  0  0  0 18
   26.8232   24.7225    3.5201 C   0  0  0  0  0  0  0  0  0 19
   26.6877   26.0328    3.5655 C   0  0  0  0  0  0  0  0  0 20
   29.8410   26.8816    3.1089 H   0  0  0  0  0  0  0  0  0 22
   30.0883   24.4513    3.1004 H   0  0  0  0  0  0  0  0  0 23
   25.6758   26.5359    3.7154 H   0  0  0  0  0  0  0  0  0 24
   25.7364   22.7929    3.4581 N   0  0  0  0  0  0  0  0  0 25
   25.7628   23.9186    3.5953 C   0  0  0  0  0  0  0  0  0 26
   24.7332   24.3528    3.8211 H   0  0  0  0  0  0  0  0  0 27
  1  2  1  0  0  0
  2  3  4  0  0  0
  2  7  4  0  0  0
  3 10  1  0  0  0
  3  4  4  0  0  0
  4  5  4  0  0  0
  5  6  4  0  0  0
  6  8  1  0  0  0
  6  7  4  0  0  0
  7  9  1  0  0  0
 11 12  1  0  0  0
 12 13  4  0  0  0
 12 17  4  0  0  0
 13 14  4  0  0  0
 13 18  1  0  0  0
 14 19  1  0  0  0
 14 15  4  0  0  0
 15 16  4  0  0  0
 16 17  4  0  0  0
 17 20  1  0  0  0
 22 23  1  0  0  0
 15  5  4  0  0  0
 21  4  4  0  0  0
 22 16  4  0  0  0
 22 21  4  0  0  0
M  $3D  2
M  $3D -9  9 C1-B1
M  $3D  2  1    0.7500    0.7500
M  $3D -9  9 C1-B1
M  $3D 12 11    0.7500    0.7500
M  END
