L72
  MatStudio         3D                             0

 20 22  0  0  0  0  0  0  0  0999 V2000
    3.7256   11.7580   45.4235 C   0  0  0  0  0  0  0  0  0  1
    3.2558   10.5201   44.7283 C   0  0  0  0  0  0  0  0  0  2
    0.2341   12.0834   45.6667 O   0  0  0  0  0  0  0  0  0  3
    1.3865    7.2568   42.8244 C   0  0  0  0  0  0  0  0  0  4
    1.8564    8.4947   43.5196 C   0  0  0  0  0  0  0  0  0  5
    4.8775    6.9312   42.5808 O   0  0  0  0  0  0  0  0  0  6
    1.3855   11.7584   45.4230 C   0  0  0  0  0  0  0  0  0  7
    1.8556   10.5373   44.6985 C   0  0  0  0  0  0  0  0  0  8
    2.5557   13.1064   46.2020 F   0  0  0  0  0  0  0  0  0  9
    4.0031    9.4884   44.1570 C   0  0  0  0  0  0  0  0  0 10
    4.8771   12.1325   45.5832 O   0  0  0  0  0  0  0  0  0 11
    2.5557   12.4568   45.8270 N   0  0  0  0  0  0  0  0  0 12
    3.7265    7.2567   42.8249 C   0  0  0  0  0  0  0  0  0 13
    3.2563    8.4778   43.5494 C   0  0  0  0  0  0  0  0  0 14
    2.5564    5.9084   42.0459 F   0  0  0  0  0  0  0  0  0 15
    1.1091    9.5263   44.0909 C   0  0  0  0  0  0  0  0  0 16
    0.2351    6.8823   42.6646 O   0  0  0  0  0  0  0  0  0 17
    2.5565    6.5579   42.4209 N   0  0  0  0  0  0  0  0  0 18
    5.1417    9.5134   44.2083 H   0  0  0  0  0  0  0  0  0 23
   -0.0295    9.5013   44.0396 H   0  0  0  0  0  0  0  0  0 24
  1 11  2  0  0  0
  1 12  1  0  0  0
  1  2  1  0  0  0
  2  8  4  0  0  0
  2 10  4  0  0  0
  3  7  2  0  0  0
  4  5  1  0  0  0
  4 17  2  0  0  0
  4 18  1  0  0  0
  5 14  4  0  0  0
  5 16  4  0  0  0
  6 13  2  0  0  0
  7 12  1  0  0  0
  7  8  1  0  0  0
  8 16  4  0  0  0
  9 12  1  0  0  0
 10 19  1  0  0  0
 10 14  4  0  0  0
 13 14  1  0  0  0
 13 18  1  0  0  0
 15 18  1  0  0  0
 16 20  1  0  0  0
M  $3D  2
M  $3D -9  9 N1-B1
M  $3D 12  9    0.7500    0.7500
M  $3D -9  9 N2-B2
M  $3D 18 15    0.7500    0.7500
M  END
