L74
  MatStudio         3D                             0

 26 28  0  0  0  0  0  0  0  0999 V2000
    7.8150   14.6152    4.5200 C   0  0  0  0  0  0  0  0  0  1
    9.0102   13.9189    4.9078 C   0  0  0  0  0  0  0  0  0  2
    9.0283   18.2221    4.6838 C   0  0  0  0  0  0  0  0  0  3
    7.6901   11.5572    3.9384 S   0  0  0  0  0  0  0  0  0  4
    8.5176   10.0987    4.2509 C   0  0  0  0  0  0  0  0  0  5
    9.7182   10.2587    4.9057 C   0  0  0  0  0  0  0  0  0  6
    9.9699   11.5791    5.1737 C   0  0  0  0  0  0  0  0  0  7
    6.8933   14.0726    4.4077 H   0  0  0  0  0  0  0  0  0  8
   10.3737    9.4495    5.1975 H   0  0  0  0  0  0  0  0  0  9
   10.8409   11.9147    5.7199 H   0  0  0  0  0  0  0  0  0 10
    7.2227   16.4167    4.2095 F   0  0  0  0  0  0  0  0  0 12
    7.8186   16.0266    4.4445 C   0  0  0  0  0  0  0  0  0 13
   10.1981   16.0203    4.5200 C   0  0  0  0  0  0  0  0  0 14
    9.0029   16.7166    4.9078 C   0  0  0  0  0  0  0  0  0 15
    8.9848   12.4134    4.6838 C   0  0  0  0  0  0  0  0  0 16
   10.3230   19.0783    3.9384 S   0  0  0  0  0  0  0  0  0 17
    9.4955   20.5368    4.2509 C   0  0  0  0  0  0  0  0  0 18
    8.2949   20.3768    4.9057 C   0  0  0  0  0  0  0  0  0 19
    8.0432   19.0564    5.1737 C   0  0  0  0  0  0  0  0  0 20
   11.1198   16.5629    4.4077 H   0  0  0  0  0  0  0  0  0 21
    7.6394   21.1860    5.1975 H   0  0  0  0  0  0  0  0  0 22
    7.1722   18.7208    5.7199 H   0  0  0  0  0  0  0  0  0 23
   10.7904   14.2188    4.2095 F   0  0  0  0  0  0  0  0  0 25
   10.1944   14.6089    4.4445 C   0  0  0  0  0  0  0  0  0 26
    9.9473   21.5303    3.9219 H   0  0  0  0  0  0  0  0  0 27
    8.0658    9.1052    3.9219 H   0  0  0  0  0  0  0  0  0 28
  1 12  4  0  0  0
  1  8  1  0  0  0
  1  2  4  0  0  0
  2 24  4  0  0  0
  2 15  1  0  0  0
  3 16  4  0  0  0
  3 19  4  0  0  0
  3 14  1  0  0  0
  4  5  4  0  0  0
  4 15  4  0  0  0
  5 26  1  0  0  0
  5  6  4  0  0  0
  6  7  4  0  0  0
  6  9  1  0  0  0
  7 10  1  0  0  0
  7 15  4  0  0  0
 11 12  1  0  0  0
 12 14  4  0  0  0
 13 20  1  0  0  0
 13 24  4  0  0  0
 13 14  4  0  0  0
 16 17  4  0  0  0
 17 25  1  0  0  0
 17 18  4  0  0  0
 18 21  1  0  0  0
 18 19  4  0  0  0
 19 22  1  0  0  0
 23 24  1  0  0  0
M  $3D  2
M  $3D -9  9 C7-B1
M  $3D 12 11    0.7500    0.7500
M  $3D -9  9 C14-B2
M  $3D 24 23    0.7500    0.7500
M  END
