L8
  MatStudio         3D                             0

 32 34  0  0  0  0  0  0  0  0999 V2000
    7.3153   14.5179    5.0263 C   0  0  0  0  0  0  0  0  0  3
    6.6677   14.8963    5.0260 F   0  0  0  0  0  0  0  0  0  4
    7.3075   12.9778    5.0266 C   0  0  0  0  0  0  0  0  0  5
    9.9821   14.5051    5.0265 C   0  0  0  0  0  0  0  0  0  6
    6.3172   12.4132    5.0268 H   0  0  0  0  0  0  0  0  0  7
    8.6523   15.2816    5.0267 C   0  0  0  0  0  0  0  0  0  8
    8.6377   12.2012    5.0264 C   0  0  0  0  0  0  0  0  0  9
    8.6572   16.4216    5.0267 H   0  0  0  0  0  0  0  0  0 10
    9.9744   12.9655    5.0260 C   0  0  0  0  0  0  0  0  0 11
   11.3051   12.1916    5.0253 C   0  0  0  0  0  0  0  0  0 12
   11.3020   10.6516    5.0248 C   0  0  0  0  0  0  0  0  0 13
   13.9714   12.1885    5.0252 C   0  0  0  0  0  0  0  0  0 14
   10.3135   10.0838    5.0249 H   0  0  0  0  0  0  0  0  0 15
   12.6391   12.9600    5.0254 C   0  0  0  0  0  0  0  0  0 16
   12.6349    9.8797    5.0246 C   0  0  0  0  0  0  0  0  0 17
   12.6398   14.1002    5.0256 H   0  0  0  0  0  0  0  0  0 18
   13.9691   10.6489    5.0252 C   0  0  0  0  0  0  0  0  0 19
   18.6245    7.9757    5.0256 F   0  0  0  0  0  0  0  0  0 20
   15.3028    9.8804    5.0255 C   0  0  0  0  0  0  0  0  0 21
   15.3062    8.3406    5.0256 C   0  0  0  0  0  0  0  0  0 22
   17.9695    9.8883    5.0259 C   0  0  0  0  0  0  0  0  0 23
   14.3200    7.7686    5.0255 H   0  0  0  0  0  0  0  0  0 24
   16.6338   10.6542    5.0256 C   0  0  0  0  0  0  0  0  0 25
   16.6423    7.5743    5.0260 C   0  0  0  0  0  0  0  0  0 26
   16.6298   11.7944    5.0256 H   0  0  0  0  0  0  0  0  0 27
   17.9737    8.3484    5.0256 C   0  0  0  0  0  0  0  0  0 28
   16.6460    6.4343    5.0264 H   0  0  0  0  0  0  0  0  0 30
    8.6333   11.0611    5.0263 H   0  0  0  0  0  0  0  0  0 31
   12.6344    8.7396    5.0242 H   0  0  0  0  0  0  0  0  0 32
   18.9554   10.4608    5.0264 H   0  0  0  0  0  0  0  0  0 34
   10.9726   15.0696    5.0264 H   0  0  0  0  0  0  0  0  0 35
   14.9599   12.7568    5.0250 H   0  0  0  0  0  0  0  0  0 36
  1  6  4  0  0  0
  1  2  1  0  0  0
  1  3  4  0  0  0
  3  5  1  0  0  0
  3  7  4  0  0  0
  4  6  4  0  0  0
  4  9  4  0  0  0
  6  8  1  0  0  0
  7  9  4  0  0  0
 10 11  4  0  0  0
 10 14  4  0  0  0
 11 13  1  0  0  0
 11 15  4  0  0  0
 12 17  4  0  0  0
 12 14  4  0  0  0
 14 16  1  0  0  0
 15 17  4  0  0  0
 18 26  1  0  0  0
 19 23  4  0  0  0
 19 20  4  0  0  0
 20 22  1  0  0  0
 20 24  4  0  0  0
 21 23  4  0  0  0
 21 26  4  0  0  0
 23 25  1  0  0  0
 24 26  4  0  0  0
  4 31  1  0  0  0
  7 28  1  0  0  0
  9 10  1  0  0  0
 12 32  1  0  0  0
 15 29  1  0  0  0
 17 19  1  0  0  0
 21 30  1  0  0  0
 24 27  1  0  0  0
M  $3D  2
M  $3D -9  9 C6-B11
M  $3D  1  2    0.7500    0.7500
M  $3D -9  9 C341-B6
M  $3D 26 18    0.7500    0.7500
M  END
