45
mol to xyz file
C             2.7588        12.0771       2.7370    
C             1.6703        11.8839       3.5484    
C             1.2438        12.9425       4.3578    
O             3.3420        11.2190       1.8576    
H             1.1473        10.9216       3.5657    
C             -3.4526       13.2787       2.7370    
C             -3.0757       14.3180       3.5484    
C             -1.9456       14.1581       4.3578    
O             -4.4873       13.2028       1.8576    
H             -3.6475       15.2521       3.5657    
C             0.6938        18.0572       2.7370    
C             1.4054        17.2111       3.5484    
C             0.7018        16.3124       4.3578    
O             1.1453        18.9912       1.8576    
H             2.5002        17.2393       3.5657    
C             3.4526        13.2787       2.7370    
C             3.0757        14.3180       3.5484    
C             1.9456        14.1581       4.3578    
O             4.4873        13.2028       1.8576    
H             3.6475        15.2521       3.5657    
C             -0.6938       18.0572       2.7370    
C             -1.4054       17.2111       3.5484    
C             -0.7018       16.3124       4.3578    
O             -1.1453       18.9912       1.8576    
H             -2.5002       17.2393       3.5657    
C             -2.7588       12.0771       2.7370    
C             -1.6703       11.8839       3.5484    
C             -1.2438       12.9425       4.3578    
O             -3.3420       11.2190       1.8576    
H             -1.1473       10.9216       3.5657    
C             0.0000        12.7276       5.1688    
H             0.0000        11.6883       5.5471    
H             0.0000        13.3521       6.0762    
C             -1.5098       15.3427       5.1688    
H             -2.4099       15.8623       5.5471    
H             -0.9690       15.0304       6.0762    
C             1.5098        15.3427       5.1688    
H             2.4099        15.8623       5.5471    
H             0.9690        15.0304       6.0762    
B             4.4077        11.9262       1.3090    
B             -4.4077       11.9262       1.3090    
B             0.0000        19.5606       1.3090    
X             0.0604        20.0989       0.7902    
X             4.8437        11.6047       0.7902    
X             -4.9041       11.7093       0.7902    
0         3     S     
0         15    A     
0         1     A     
1         4     S     
1         2     A     
2         17    A     
2         30    S     
3         39    S     
5         8     S     
5         25    A     
5         6     A     
6         9     S     
6         7     A     
7         27    A     
7         33    S     
8         40    S     
10        13    S     
10        20    A     
10        11    A     
11        12    A     
11        14    S     
12        22    A     
12        36    S     
13        41    S     
15        18    S     
15        16    A     
16        19    S     
16        17    A     
17        36    S     
18        39    S     
20        23    S     
20        21    A     
21        22    A     
21        24    S     
22        33    S     
23        41    S     
25        28    S     
25        26    A     
26        29    S     
26        27    A     
27        30    S     
28        40    S     
30        32    S     
30        31    S     
33        35    S     
33        34    S     
36        38    S     
36        37    S     
41        42    S     
39        43    S     
40        44    S     
