40
mol to xyz file
C             0.9680        0.4750        -0.0020   
C             1.6620        -0.7480       -0.0010   
C             3.0620        -0.7500       0.0010    
C             3.7590        0.4710        0.0020    
C             3.0650        1.6930        0.0010    
C             1.6650        1.6950        -0.0000   
C             3.7860        2.8990        0.0030    
C             5.1680        2.8540        0.0040    
C             5.8400        1.6700        0.0050    
C             5.1610        0.4690        0.0040    
C             5.8370        -0.7330       0.0040    
C             5.1620        -1.9150       0.0030    
C             3.7790        -1.9570       0.0010    
C             -0.4340       0.4770        -0.0030   
C             -1.1100       1.6790        -0.0040   
C             -0.4350       2.8610        -0.0030   
C             0.9480        2.9030        -0.0010   
C             -1.1130       -0.7240       -0.0050   
C             -0.4410       -1.9080       -0.0040   
C             0.9410        -1.9530       -0.0020   
O             7.1050        1.8990        0.0060    
B             7.2340        3.2390        0.0070    
O             6.0180        3.8180        0.0060    
O             6.0100        -2.8820       0.0040    
B             7.2260        -2.3060       0.0050    
O             7.1020        -0.9660       0.0060    
O             -1.2910       -2.8730       -0.0050   
B             -2.5070       -2.2930       -0.0070   
O             -2.3780       -0.9540       -0.0060   
O             -1.2820       3.8280        -0.0040   
B             -2.4990       3.2520        -0.0050   
O             -2.3750       1.9120        -0.0050   
H             3.3050        3.8340        0.0020    
H             3.2960        -2.8910       0.0000    
H             1.4310        3.8370        -0.0000   
H             1.4220        -2.8890       -0.0020   
X             7.9165        3.5500        0.0080    
X             7.8430        -2.7325       0.0049    
X             -3.1251       -2.7178       -0.0084   
X             -3.1158       3.6787        -0.0055   
0         5     A     
0         13    A     
0         1     A     
1         19    A     
1         2     S     
2         3     A     
2         12    A     
3         9     A     
3         4     A     
4         6     A     
4         5     S     
5         16    A     
6         7     A     
6         32    S     
7         22    S     
7         8     A     
8         9     A     
8         20    S     
9         10    A     
10        25    S     
10        11    A     
11        12    A     
11        23    S     
12        33    S     
13        14    A     
13        17    A     
14        15    A     
14        31    S     
15        16    A     
15        29    S     
16        34    S     
17        28    S     
17        18    A     
18        26    S     
18        19    A     
19        35    S     
20        21    S     
21        22    S     
23        24    S     
24        25    S     
26        27    S     
27        28    S     
29        30    S     
30        31    S     
21        36    S     
24        37    S     
27        38    S     
30        39    S     
