41
mol to xyz file
C             9.6448        28.9345       28.9345   
C             8.7541        29.8253       28.0438   
C             10.5356       28.0438       28.0438   
C             10.5356       29.8253       29.8253   
C             8.7541        28.0438       29.8253   
C             9.1561        31.2122       28.4458   
C             10.1336       26.6569       28.4458   
C             10.1336       31.2122       29.4233   
C             9.1561        26.6569       29.4233   
C             9.1561        28.4458       31.2122   
C             9.1561        29.4233       26.6569   
C             10.1336       29.4233       31.2122   
C             10.1336       28.4458       26.6569   
C             11.9225       28.4458       28.4458   
C             7.3672        28.4458       29.4233   
C             11.9225       29.4233       29.4233   
C             7.3672        29.4233       28.4458   
O             10.5139       32.4865       29.8036   
O             8.7758        25.3825       29.8036   
O             8.7758        32.4865       28.0655   
O             10.5139       25.3825       28.0655   
O             10.5139       29.8036       32.4865   
O             10.5139       28.0655       25.3825   
O             8.7758        28.0655       32.4865   
O             8.7758        29.8036       25.3825   
O             13.1969       29.8036       29.8036   
O             6.0928        29.8036       28.0655   
O             13.1969       28.0655       28.0655   
O             6.0928        28.0655       29.8036   
B             9.6448        24.5815       28.9345   
B             9.6448        33.2875       28.9345   
B             9.6448        28.9345       33.2875   
B             9.6448        28.9345       24.5815   
B             13.9978       28.9345       28.9345   
B             5.2918        28.9345       28.9345   
X             9.6162        23.8326       28.9632   
X             9.6735        34.0364       28.9632   
X             9.6735        28.9632       34.0364   
X             9.6735        28.9059       23.8326   
X             14.7468       28.9632       28.9632   
X             4.5429        28.9632       28.9059   
0         3     S     
0         4     S     
0         1     S     
0         2     S     
1         10    S     
1         5     S     
1         16    S     
2         12    S     
2         13    S     
2         6     S     
3         15    S     
3         7     S     
3         11    S     
4         8     S     
4         14    S     
4         9     S     
5         7     D     
6         8     D     
9         11    D     
10        12    D     
13        15    D     
14        16    D     
29        35    S     
30        36    S     
31        37    S     
32        38    S     
33        39    S     
34        40    S     
5         19    S     
6         20    S     
7         17    S     
8         18    S     
9         23    S     
10        24    S     
11        21    S     
12        22    S     
13        27    S     
14        28    S     
15        25    S     
16        26    S     
17        30    S     
18        29    S     
19        30    S     
20        29    S     
21        31    S     
22        32    S     
23        31    S     
24        32    S     
25        33    S     
26        34    S     
27        33    S     
28        34    S     
