48
mol to xyz file
C             -0.6991       19.9802       1.7515    
C             -1.5431       21.2741       1.6841    
C             -3.0869       21.1903       1.6668    
C             -3.7500       19.8046       1.7176    
C             -2.9354       18.5556       1.7820    
C             -1.3991       18.6024       1.8010    
O             -3.7994       17.3366       1.8222    
B             -5.1157       18.0251       1.7739    
O             -5.2148       19.5067       1.7098    
C             0.8448        20.0641       1.7685    
C             1.5447        21.4419       1.7184    
C             1.6885        18.7701       1.8358    
C             3.2207        18.8899       1.8513    
C             3.8965        20.2199       1.8030    
C             3.0886        21.5258       1.7354    
O             5.3847        20.0823       1.8286    
B             5.4454        18.5987       1.8936    
O             4.2106        17.7716       1.9130    
C             -0.8430       22.6518       1.6341    
C             0.7009        22.7358       1.6511    
C             1.4008        24.1135       1.6011    
C             0.5317        25.3794       1.5347    
C             -0.9586       25.2984       1.5183    
C             -1.6868       23.9457       1.5668    
O             -1.5827       26.6551       1.4508    
B             -0.3269       27.4502       1.4326    
O             1.0068        26.7956       1.4794    
X             -5.7493       17.6238       1.7817    
X             6.1096        18.2512       1.9174    
X             -0.3575       28.1988       1.3992    
C             3.7515        22.9114       1.6848    
C             -3.2190       23.8259       1.5515    
C             0.9602        17.4174       1.8847    
C             2.9371        24.1604       1.6199    
C             -3.8949       22.4960       1.5994    
C             -0.5299       17.3363       1.8679    
O             3.8011        25.3795       1.5794    
O             -5.3832       22.6335       1.5737    
O             -1.0050       15.9201       1.9230    
B             5.1174        24.6907       1.6276    
B             -5.4438       24.1172       1.5091    
B             0.3287        15.2659       1.9702    
O             5.2162        23.2090       1.6922    
O             -4.2089       24.9443       1.4900    
O             1.5844        16.0609       1.9520    
X             5.7511        25.0918       1.6196    
X             -6.1080       24.4647       1.4854    
X             0.3787        14.5183       2.0040    
0         9     A     
0         1     A     
0         5     A     
1         18    A     
1         2     A     
2         3     A     
3         8     S     
3         4     A     
4         5     A     
4         6     S     
6         7     S     
7         8     S     
9         10    A     
9         11    A     
10        19    A     
10        14    A     
11        12    A     
12        17    S     
12        13    A     
13        15    S     
13        14    A     
15        16    S     
16        17    S     
18        19    A     
18        23    A     
19        20    A     
20        21    A     
21        22    A     
21        26    S     
22        24    S     
22        23    A     
24        25    S     
25        26    S     
7         27    S     
16        28    S     
25        29    S     
30        42    S     
30        33    A     
31        43    S     
31        34    A     
32        44    S     
32        35    A     
33        36    S     
34        37    S     
35        38    S     
36        39    S     
37        40    S     
38        41    S     
39        42    S     
40        43    S     
41        44    S     
39        45    S     
40        46    S     
41        47    S     
2         34    A     
5         35    A     
11        32    A     
14        30    A     
20        33    A     
23        31    A     
