104
mol to xyz file
O             10.2917       3.7279        1.7656    
O             7.9715        3.5894        1.7656    
O             14.6026       21.1664       1.7656    
O             16.9228       21.3049       1.7656    
O             21.1664       10.2917       1.7656    
O             21.3049       7.9715        1.7656    
O             3.7279        14.6026       1.7656    
O             3.5894        16.9228       1.7656    
O             14.6026       3.7279        1.7656    
O             16.9228       3.5894        1.7656    
O             10.2917       21.1664       1.7656    
O             7.9715        21.3049       1.7656    
O             3.7279        10.2917       1.7656    
O             3.5894        7.9715        1.7656    
O             21.1664       14.6026       1.7656    
O             21.3049       16.9228       1.7656    
B             9.1830        2.8959        1.7656    
B             15.7113       21.9984       1.7656    
B             21.9984       9.1830        1.7656    
B             2.8959        15.7113       1.7656    
B             15.7113       2.8959        1.7656    
B             9.1830        21.9984       1.7656    
B             2.8959        9.1830        1.7656    
B             21.9984       15.7113       1.7656    
C             15.1425       19.8911       1.7656    
C             14.4434       18.6820       1.7656    
C             15.2125       17.5167       1.7656    
C             16.5919       17.6036       1.7656    
C             17.2760       18.8472       1.7656    
C             16.5202       19.9866       1.7656    
C             13.0512       18.6594       1.7656    
C             9.7518        5.0032        1.7656    
C             10.4509       6.2123        1.7656    
C             9.6818        7.3776        1.7656    
C             8.3024        7.2907        1.7656    
C             7.6183        6.0471        1.7656    
C             8.3741        4.9077        1.7656    
C             11.8431       6.2349        1.7656    
C             5.0032        15.1425       1.7656    
C             6.2123        14.4434       1.7656    
C             7.3776        15.2125       1.7656    
C             7.2907        16.5919       1.7656    
C             6.0471        17.2760       1.7656    
C             4.9077        16.5202       1.7656    
C             6.2349        13.0512       1.7656    
C             19.8911       9.7518        1.7656    
C             18.6820       10.4509       1.7656    
C             17.5167       9.6818        1.7656    
C             17.6036       8.3024        1.7656    
C             18.8472       7.6183        1.7656    
C             19.9866       8.3741        1.7656    
C             18.6594       11.8431       1.7656    
C             9.7518        19.8911       1.7656    
C             10.4509       18.6820       1.7656    
C             9.6818        17.5167       1.7656    
C             8.3024        17.6036       1.7656    
C             7.6183        18.8472       1.7656    
C             8.3741        19.9866       1.7656    
C             11.8431       18.6594       1.7656    
C             15.1425       5.0032        1.7656    
C             14.4434       6.2123        1.7656    
C             15.2125       7.3776        1.7656    
C             16.5919       7.2907        1.7656    
C             17.2760       6.0471        1.7656    
C             16.5202       4.9077        1.7656    
C             13.0512       6.2349        1.7656    
C             19.8911       15.1425       1.7656    
C             18.6820       14.4434       1.7656    
C             17.5167       15.2125       1.7656    
C             17.6036       16.5919       1.7656    
C             18.8472       17.2760       1.7656    
C             19.9866       16.5202       1.7656    
C             18.6594       13.0512       1.7656    
C             5.0032        9.7518        1.7656    
C             6.2123        10.4509       1.7656    
C             7.3776        9.6818        1.7656    
C             7.2907        8.3024        1.7656    
C             6.0471        7.6183        1.7656    
C             4.9077        8.3741        1.7656    
C             6.2349        11.8431       1.7656    
H             14.7010       16.5350       1.7656    
H             10.1933       8.3593        1.7656    
H             8.3593        14.7010       1.7656    
H             16.5350       10.1933       1.7656    
H             10.1933       16.5350       1.7656    
H             14.7010       8.3593        1.7656    
H             16.5350       14.7010       1.7656    
H             8.3593        10.1933       1.7656    
H             19.3619       5.5324        1.7656    
H             5.5324        19.3619       1.7656    
H             19.3619       19.3619       1.7656    
H             5.5324        5.5324        1.7656    
N             18.6397       6.2546        1.7656    
N             6.2546        18.6397       1.7656    
N             18.6397       18.6397       1.7656    
N             6.2546        6.2546        1.7656    
X             9.2729        2.1513        1.7656    
X             15.6214       22.7430       1.7656    
X             22.7430       9.2729        1.7656    
X             2.1513        15.6214       1.7656    
X             15.6214       2.1513        1.7656    
X             9.2729        22.7430       1.7656    
X             2.1513        9.2729        1.7656    
X             22.7430       15.6214       1.7656    
0         31    S     
0         16    S     
1         36    S     
1         16    S     
2         24    S     
2         17    S     
3         17    S     
3         29    S     
4         45    S     
4         18    S     
5         50    S     
5         18    S     
6         38    S     
6         19    S     
7         43    S     
7         19    S     
8         59    S     
8         20    S     
9         64    S     
9         20    S     
10        52    S     
10        21    S     
11        21    S     
11        57    S     
12        73    S     
12        22    S     
13        78    S     
13        22    S     
14        66    S     
14        23    S     
15        71    S     
15        23    S     
24        29    A     
24        25    A     
25        30    S     
25        26    A     
26        80    S     
26        27    A     
27        69    A     
27        28    A     
28        94    A     
28        29    A     
30        58    T     
31        36    A     
31        32    A     
32        37    S     
32        33    A     
33        81    S     
33        34    A     
34        76    A     
34        35    A     
35        95    A     
35        36    A     
37        65    T     
38        39    A     
38        43    A     
39        40    A     
39        44    S     
40        82    S     
40        41    A     
41        55    A     
41        42    A     
42        43    A     
42        93    A     
44        79    T     
45        46    A     
45        50    A     
46        47    A     
46        51    S     
47        83    S     
47        48    A     
48        62    A     
48        49    A     
49        50    A     
49        92    A     
51        72    T     
52        57    A     
52        53    A     
53        58    S     
53        54    A     
54        84    S     
54        55    A     
55        56    A     
56        93    A     
56        57    A     
59        64    A     
59        60    A     
60        65    S     
60        61    A     
61        85    S     
61        62    A     
62        63    A     
63        92    A     
63        64    A     
66        67    A     
66        71    A     
67        68    A     
67        72    S     
68        86    S     
68        69    A     
69        70    A     
70        71    A     
70        94    A     
73        74    A     
73        78    A     
74        75    A     
74        79    S     
75        87    S     
75        76    A     
76        77    A     
77        78    A     
77        95    A     
88        92    S     
89        93    S     
90        94    S     
91        95    S     
16        96    S     
17        97    S     
18        98    S     
19        99    S     
20        100   S     
21        101   S     
22        102   S     
23        103   S     
