26
mol to xyz file
C             28.4010       42.6015       30.1662   
C             28.4010       42.6015       26.6358   
C             29.2867       41.6687       29.2867   
C             30.1662       42.6015       28.4010   
H             30.8243       43.2500       29.0688   
H             30.8294       41.9630       27.7286   
C             27.5153       43.5343       29.2867   
C             26.6358       42.6015       28.4010   
H             25.9777       41.9530       29.0688   
H             25.9726       43.2400       27.7286   
C             27.5153       41.6687       27.5153   
H             29.0734       41.9630       25.9726   
C             28.4010       40.8013       28.4010   
H             29.0546       40.1432       27.7382   
H             27.7444       40.1401       29.0576   
C             28.4010       44.4016       28.4010   
H             27.7189       43.2349       25.9777   
C             29.2867       43.5343       27.5153   
H             27.7474       45.0598       27.7382   
H             29.0576       45.0629       29.0576   
H             29.0831       43.2349       30.8243   
H             27.7286       41.9630       30.8294   
X             29.7209       41.2380       29.7209   
X             27.0811       43.9650       29.7209   
X             27.0811       41.2380       27.0811   
X             29.7209       43.9650       27.0811   
0         21    S     
0         20    S     
0         6     S     
0         2     S     
1         17    S     
1         10    S     
1         11    S     
1         16    S     
2         12    S     
2         3     S     
3         5     S     
3         17    S     
3         4     S     
6         7     S     
6         15    S     
7         9     S     
7         8     S     
7         10    S     
10        12    S     
12        14    S     
12        13    S     
15        19    S     
15        18    S     
15        17    S     
2         22    S     
6         23    S     
10        24    S     
17        25    S     
