12
mol to xyz file
C             -0.9822       -0.1352       -0.0026   
C             -0.2827       -1.3469       0.0001    
C             1.1163        -1.3470       0.0027    
C             1.8159        -0.1354       0.0026    
C             1.1165        1.0763        -0.0001   
C             -0.2826       1.0763        -0.0027   
X             -1.7322       -0.1352       -0.0040   
X             -0.6577       -1.9964       0.0001    
X             2.5659        -0.1354       0.0040    
X             1.4915        1.7258        -0.0001   
H             1.6863        -2.3343       0.0048    
H             -0.8525       2.0636        -0.0048   
0         6     S     
0         5     A     
0         1     A     
1         2     A     
1         7     S     
2         3     A     
3         8     S     
3         4     A     
4         5     A     
4         9     S     
2         10    S     
5         11    S     
