30
mol to xyz file
C             -3.1226       -0.3509       0.0781    
C             -1.5834       -0.3112       0.0538    
C             -0.0439       -0.2780       0.0412    
C             1.4959        -0.2512       0.0422    
C             -3.8753       -1.5102       -0.6013   
C             -5.4130       -1.5705       -0.5401   
C             -6.1979       -0.4726       0.2013    
C             -5.4464       0.6956        0.8656    
C             -3.9090       0.7576        0.8020    
C             2.2434        0.8915        0.7540    
C             3.7824        0.8953        0.7992    
C             4.5739        -0.2442       0.1310    
C             3.8277        -1.3754       -0.5999   
C             2.2882        -1.3788       -0.6458   
H             -3.2939       -2.3277       -1.1427   
H             -5.9699       -2.4314       -1.0382   
N             -7.7036       -0.5422       0.2807    
H             -6.0284       1.5126        1.4075    
H             -3.3523       1.6202        1.2976    
H             1.6566        1.7311        1.2542    
H             4.3353        1.7381        1.3318    
N             6.0822        -0.2574       0.1969    
H             4.4157        -2.2121       -1.1035   
H             1.7353        -2.2186       -1.1829   
C             -8.4643       0.5159        1.0427    
C             6.8524        -1.3872       -0.4434   
X             -9.2126       0.4853        1.0820    
H             6.2947        -2.2258       -0.9777   
H             -7.9000       1.3615        1.5590    
X             7.6015        -1.3971       -0.4091   
0         1     S     
0         8     A     
0         4     A     
1         2     T     
2         3     S     
3         9     A     
3         13    A     
4         5     A     
4         14    S     
5         15    S     
5         6     A     
6         16    S     
6         7     A     
7         17    S     
7         8     A     
8         18    S     
9         19    S     
9         10    A     
10        20    S     
10        11    A     
11        21    S     
11        12    A     
12        13    A     
12        22    S     
13        23    S     
16        24    D     
21        25    D     
24        26    S     
25        27    S     
24        28    S     
25        29    S     
