13
mol to xyz file
C             -0.3774       0.1082        0.0586    
N             0.6278        -0.7933       0.7904    
C             2.0251        -0.2719       0.6294    
C             1.9499        0.9759        -0.2128   
N             0.5076        1.2033        -0.5570   
N             -1.4480       0.6753        1.0026    
C             -2.8218       0.2742        0.5534    
C             -2.6662       -0.5581       -0.6927   
N             -1.1992       -0.6552       -0.9909   
X             -3.4681       0.4542        0.8885    
X             -3.2211       -0.8670       -1.0916   
X             2.6477        -0.5766       0.9158    
X             2.5284        1.4053        -0.4216   
0         5     S     
0         1     S     
0         4     S     
0         8     S     
1         2     D     
2         3     S     
3         4     D     
5         6     D     
6         7     S     
7         8     D     
6         9     S     
7         10    S     
2         11    S     
3         12    S     
