74
mol to xyz file
C             33.5689       15.6434       6.4788    
C             32.3310       17.7415       6.4489    
C             33.5123       19.9010       6.4950    
C             32.2580       20.6836       6.6018    
C             31.7884       21.0897       7.8599    
C             30.6281       21.8638       7.9653    
C             29.9221       22.2503       6.8139    
C             30.3978       21.8462       5.5529    
C             31.5605       21.0716       5.4482    
N             28.7056       23.0816       6.9525    
H             31.3673       18.2340       6.4111    
H             32.3293       20.8116       8.7572    
H             30.2854       22.1688       8.9470    
H             29.8715       22.1375       4.6521    
H             31.9184       20.7726       4.4701    
N             28.7758       24.3820       6.9550    
C             33.5250       18.4842       6.4798    
C             32.3525       16.3482       6.4508    
C             33.5989       14.2280       6.4918    
C             32.3684       13.4114       6.5981    
C             31.8660       13.0648       7.8606    
C             30.7306       12.2554       7.9710    
C             30.0773       11.7839       6.8202    
C             30.5812       12.1367       5.5547    
C             31.7240       12.9399       5.4452    
N             28.8920       10.9107       6.9649    
H             31.4047       15.8246       6.4185    
H             32.3635       13.4148       8.7578    
H             30.3629       11.9940       8.9562    
H             30.0968       11.7768       4.6552    
H             32.1087       13.1944       4.4648    
N             27.6895       11.4066       7.0173    
X             28.1483       24.7914       6.9907    
X             27.5425       11.9865       7.4696    
C             35.9823       18.5211       6.4788    
C             37.2202       16.4230       6.4489    
C             36.0389       14.2634       6.4950    
C             37.2932       13.4808       6.6018    
C             37.8018       13.1377       7.8634    
C             38.9621       12.3639       7.9715    
C             39.6292       11.9149       6.8195    
C             39.1143       12.2561       5.5552    
C             37.9516       13.0303       5.4480    
N             40.8465       11.0855       6.9617    
H             38.1839       15.9304       6.4112    
H             37.2912       13.4644       8.7621    
H             39.3353       12.1082       8.9561    
H             39.6102       11.9159       4.6542    
H             37.5633       13.2804       4.4678    
N             40.7719       9.7874        7.0337    
C             36.0262       15.6802       6.4798    
C             37.1987       17.8162       6.4508    
C             35.9523       19.9364       6.4918    
C             37.1828       20.7530       6.5981    
C             37.6419       21.1653       7.8574    
C             38.7772       21.9753       7.9648    
C             39.4736       22.3817       6.8144    
C             39.0131       21.9630       5.5525    
C             37.8705       21.1592       5.4454    
N             40.6579       23.2570       6.9544    
H             38.1465       18.3398       6.4185    
H             37.1108       20.8660       8.7536    
H             39.1109       22.2881       8.9470    
H             39.5313       22.2720       4.6529    
H             37.5195       20.8537       4.4669    
N             41.8550       22.7603       7.0765    
C             34.7227       20.6040       6.4821    
C             34.7866       16.3712       6.4758    
H             34.7078       21.6884       6.5185    
C             34.8285       13.5605       6.4822    
C             34.7646       17.7932       6.4758    
H             34.8434       12.4760       6.5185    
X             40.1032       9.4530        7.0939    
X             42.3401       23.0656       7.5601    
0         18    A     
0         17    A     
1         16    A     
1         10    S     
1         17    A     
2         3     S     
2         16    A     
3         8     A     
3         4     A     
4         11    S     
4         5     A     
5         6     A     
5         12    S     
6         7     A     
6         9     S     
7         8     A     
7         13    S     
8         14    S     
9         15    D     
17        26    S     
18        19    S     
19        24    A     
19        20    A     
20        27    S     
20        21    A     
21        22    A     
21        28    S     
22        25    S     
22        23    A     
23        24    A     
23        29    S     
24        30    S     
25        31    D     
15        32    S     
31        33    S     
34        70    A     
34        51    A     
34        52    A     
35        51    A     
35        44    S     
35        50    A     
36        50    A     
36        69    A     
36        37    S     
37        42    A     
37        38    A     
38        45    S     
38        39    A     
39        40    A     
39        46    S     
40        41    A     
40        43    S     
41        42    A     
41        47    S     
42        48    S     
43        49    D     
50        67    A     
51        60    S     
52        53    S     
52        66    A     
53        58    A     
53        54    A     
54        61    S     
54        55    A     
55        56    A     
55        62    S     
56        57    A     
56        59    S     
57        58    A     
57        63    S     
58        64    S     
59        65    D     
66        68    S     
67        70    A     
69        71    S     
49        72    S     
65        73    S     
0         67    A     
2         66    A     
16        70    A     
18        69    A     
