40
mol to xyz file
N             21.0754       29.1872       1.5475    
C             21.2495       30.6860       1.5980    
X             21.9375       30.9833       1.6246    
C             19.6879       28.5948       1.4934    
C             18.4590       29.5206       1.4665    
C             17.0412       28.9216       1.4218    
C             16.8565       27.3915       1.4143    
C             19.5019       27.0674       1.4667    
H             18.5989       30.6520       1.4807    
C             14.4636       29.2375       1.4271    
O             15.8468       29.8508       1.3908    
H             13.3702       31.2924       1.5052    
N             15.4732       26.8041       1.4022    
H             20.3340       31.3656       1.5946    
N             10.6105       30.4639       1.5813    
C             9.2243        29.8662       1.6065    
H             9.0918        28.7344       1.5708    
C             11.8167       29.5587       1.5140    
C             11.6286       28.0321       1.4752    
C             12.8560       27.1035       1.4215    
C             14.2732       27.7083       1.4127    
C             13.2325       30.1610       1.4834    
H             10.5785       27.5882       1.4885    
X             8.6233        30.3134       1.6438    
C             18.0862       26.4624       1.4286    
O             17.9252       24.9575       1.4120    
H             20.4133       26.3827       1.4802    
N             14.7338       20.7612       1.5306    
C             15.9434       19.8608       1.6051    
X             15.8562       19.1162       1.6266    
C             14.9154       22.2591       1.4819    
C             16.3318       22.8604       1.4719    
C             16.5230       24.3879       1.4301    
C             15.2905       25.3128       1.4109    
C             13.8711       24.7127       1.4111    
C             13.6865       23.1842       1.4446    
O             12.6488       25.6046       1.3829    
H             17.2411       22.1733       1.4954    
H             12.6378       22.7374       1.4443    
H             16.9894       20.3137       1.6298    
0         3     S     
0         1     D     
3         4     A     
3         7     A     
4         5     A     
4         8     S     
5         10    S     
5         6     A     
6         12    S     
9         10    S     
2         1     S     
1         13    S     
14        15    D     
14        17    S     
17        21    A     
17        18    A     
18        22    S     
18        19    A     
19        20    A     
15        16    S     
15        23    S     
11        21    S     
9         21    A     
20        9     A     
24        25    S     
26        7     S     
7         24    A     
6         24    A     
12        20    S     
27        28    D     
27        30    S     
30        31    A     
30        35    A     
31        37    S     
31        32    A     
32        33    A     
33        34    A     
34        35    A     
34        36    S     
35        38    S     
29        28    S     
28        39    S     
33        12    S     
36        19    S     
25        32    S     
