22
mol to xyz file
C             7.8813        14.2306       5.2216    
C             7.8789        12.6907       5.2297    
C             10.5476       14.2271       5.1797    
C             9.2156        14.9987       5.1979    
C             9.2111        11.9187       5.2208    
C             10.5450       12.6877       5.2015    
X             7.2288        12.3168       5.2398    
X             9.2169        15.7487       5.1983    
H             6.8950        14.8021       5.2338    
C             11.8777       11.9181       5.2210    
C             11.8784       10.3800       5.2919    
C             14.5447       11.9212       5.2371    
H             10.8914       9.8097        5.3098    
C             13.2104       12.6883       5.1870    
C             13.2130       9.6132        5.3505    
H             13.2090       13.8269       5.1286    
C             14.5463       10.3837       5.3230    
X             15.1938       12.2965       5.2220    
X             13.2136       8.8645        5.3955    
H             15.5341       9.8162        5.3661    
H             9.2100        10.7786       5.2322    
H             11.5359       14.7951       5.1591    
0         8     S     
0         3     A     
0         1     A     
1         6     S     
1         4     A     
2         3     A     
2         5     A     
3         7     S     
4         5     A     
9         13    A     
9         10    A     
10        12    S     
10        14    A     
11        17    S     
11        13    A     
11        16    A     
13        15    S     
14        16    A     
14        18    S     
16        19    S     
2         21    S     
4         20    S     
5         9     S     
