32
mol to xyz file
C             11.4497       12.2080       5.2609    
C             7.8824        14.2332       5.2609    
C             11.4472       10.6681       5.2690    
C             7.8800        12.6932       5.2690    
C             14.1160       12.2045       5.2190    
C             10.5487       14.2297       5.2190    
C             12.7839       12.9761       5.2372    
C             9.2167        15.0013       5.2372    
C             12.7794       9.8961        5.2601    
C             9.2121        11.9213       5.2601    
C             14.1133       10.6651       5.2408    
C             10.5461       12.6903       5.2408    
H             9.2111        10.7812       5.2715    
H             11.5370       14.7977       5.1984    
X             7.2298        12.3194       5.2791    
X             9.2180        15.7513       5.2376    
H             6.8961        14.8047       5.2731    
H             10.4591       10.0997       5.2815    
H             15.1040       12.7724       5.1895    
H             12.7854       14.1161       5.2331    
H             12.7777       8.7562        5.2679    
C             14.9568       10.1947       5.2603    
C             14.9576       8.6566        5.3312    
C             17.6238       10.1977       5.2764    
H             13.9705       8.0863        5.3491    
C             16.2895       10.9649       5.2263    
C             16.2921       7.8897        5.3898    
H             16.2882       12.1035       5.1678    
C             17.6255       8.6603        5.3623    
X             18.2730       10.5731       5.2613    
X             16.2928       7.1411        5.4347    
H             18.6133       8.0928        5.4054    
0         2     A     
0         11    S     
0         6     A     
1         16    S     
1         7     A     
1         3     A     
2         17    S     
2         8     A     
3         14    S     
3         9     A     
4         10    A     
4         6     A     
4         18    S     
5         7     A     
5         13    S     
5         11    A     
6         19    S     
7         15    S     
8         10    A     
8         20    S     
9         12    S     
9         11    A     
21        25    A     
21        22    A     
22        24    S     
22        26    A     
23        25    A     
23        29    S     
23        28    A     
25        27    S     
26        28    A     
26        30    S     
28        31    S     
10        21    S     
