40
mol to xyz file
H             6.1723        7.2393        0.4111    
H             7.5899        9.0309        0.9345    
H             9.3626        18.0669       -1.0656   
H             7.3985        16.9298       -0.9345   
H             10.0891       17.1968       0.4111    
H             7.3962        16.9421       0.9308    
H             5.4458        8.1094        -1.0656   
H             7.5977        9.0407        -0.9308   
H             8.9062        18.6136       0.6544    
H             9.8947        13.5171       0.0000    
H             3.8488        13.5407       0.0000    
C             7.1060        11.6537       0.0000    
C             6.2112        12.6688       0.0000    
C             5.4078        14.9741       0.0000    
C             6.5215        14.0058       0.0000    
C             1.9320        15.2934       0.0000    
C             8.0323        16.7732       0.0000    
O             8.5539        15.5063       0.0000    
C             9.1609        17.7156       0.0000    
N             4.1248        14.6159       0.0000    
N             3.1566        15.5712       0.0000    
O             5.6207        16.1216       0.0000    
H             4.9894        8.6560        0.6544    
H             5.0937        12.4435       0.0000    
H             11.1396       12.4199       0.0000    
C             7.8824        14.3069       0.0000    
C             8.7772        13.2919       0.0000    
C             9.5806        10.9866       0.0000    
C             8.4669        11.9549       0.0000    
C             13.0564       10.6672       0.0000    
C             6.9561        9.1875        0.0000    
O             6.4345        10.4544       0.0000    
C             5.8275        8.2451        0.0000    
N             10.8636       11.3448       0.0000    
N             11.8318       10.3895       0.0000    
O             9.3677        9.8391        0.0000    
H             1.5325        14.4780       -0.6893   
H             13.4559       11.4826       0.6893    
X             13.5250       10.2967       -0.4535   
X             1.4634        15.6640       0.4535    
0         32    S     
1         30    S     
2         18    S     
3         16    S     
4         18    S     
5         16    S     
6         32    S     
7         30    S     
8         18    S     
9         26    S     
10        19    S     
11        28    A     
11        12    A     
11        31    S     
12        14    A     
12        23    S     
13        19    S     
13        21    D     
13        14    S     
14        25    A     
15        20    D     
15        36    S     
15        39    S     
16        18    S     
16        17    S     
17        25    S     
19        20    S     
22        32    S     
24        33    S     
25        26    A     
26        28    A     
27        28    S     
27        33    S     
27        35    D     
29        38    S     
29        34    D     
29        37    S     
30        31    S     
30        32    S     
33        34    S     
