16
mol to xyz file
C             -1.0923       0.3637        0.0000    
C             -0.0033       -0.7252       0.0000    
C             1.0856        0.3637        0.0000    
C             -0.0033       1.4527        0.0000    
C             -2.6323       0.3637        0.0000    
C             -4.1723       0.3739        0.0000    
C             2.6256        0.3637        0.0000    
C             4.1656        0.3637        0.0000    
C             -0.0011       2.9926        0.0000    
C             -0.0003       4.5326        0.0000    
C             0.0327        -2.2648       0.0000    
C             0.0318        -3.8048       0.0000    
X             -4.9222       0.3788        0.0000    
X             0.0001        5.2826        0.0000    
X             4.9156        0.3637        0.0000    
X             0.0314        -4.5548       0.0000    
0         3     S     
0         4     S     
0         1     D     
1         2     S     
1         10    S     
2         3     D     
2         6     S     
3         8     S     
4         5     T     
5         12    S     
6         7     T     
7         14    S     
8         9     T     
9         13    S     
10        11    T     
11        15    S     
