9
mol to xyz file
C             -0.3489       0.2592        0.0007    
C             0.7771        -0.7858       -0.0001   
C             2.1010        -0.0229       0.0005    
C             1.7614        1.4753        0.0016    
N             0.2524        1.6549        0.0020    
H             0.5234        -1.8972       -0.0009   
H             3.1899        -0.3606       0.0002    
X             -1.0827       0.1040        0.0007    
X             2.2636        2.0324        0.0016    
0         7     S     
0         4     A     
0         1     A     
1         5     S     
1         2     A     
2         6     S     
2         3     A     
3         4     A     
3         8     S     
