16
mol to xyz file
C             10.2361       17.6216       1.7779    
X             12.5195       15.5365       2.9015    
C             11.8855       15.8412       2.6412    
S             10.3545       14.9593       2.3179    
C             9.3659        16.3432       1.7410    
C             11.6780       17.3336       2.2928    
X             4.7441        17.0766       0.1242    
C             5.3781        16.7720       0.3845    
S             6.9093        17.6537       0.7074    
C             7.8976        16.2697       1.2847    
C             7.0271        14.9917       1.2483    
C             5.5851        15.2797       0.7337    
H             12.4345       18.1826       2.3739    
H             4.7286        14.5391       0.6009    
H             9.7959        18.6204       1.4490    
H             7.4669        13.9929       1.5775    
0         14    S     
0         4     A     
0         5     A     
1         2     S     
2         3     A     
2         5     A     
3         4     A     
4         9     S     
5         12    S     
6         7     S     
7         11    A     
7         8     A     
8         9     A     
9         10    A     
10        11    A     
10        15    S     
11        13    S     
