12
mol to xyz file
C             -2.0597       0.4835        0.0002    
C             -1.1545       -0.7624       0.0002    
C             0.3101        -0.2865       0.0002    
C             0.3101        1.2535        0.0002    
S             -1.1545       1.7294        0.0002    
C             1.7747        1.7294        0.0002    
C             2.6799        0.4835        0.0002    
S             1.7747        -0.7624       0.0002    
X             -2.8056       0.4053        0.0001    
X             3.4259        0.5615        0.0005    
H             -1.3915       -1.8775       0.0002    
H             2.2384        2.7708        0.0002    
0         4     A     
0         1     A     
0         8     S     
1         10    S     
1         2     A     
2         7     A     
2         3     A     
3         5     A     
3         4     A     
5         6     A     
5         11    S     
6         9     S     
6         7     A     
