18
mol to xyz file
C             10.7489       15.7742       1.7697    
C             8.2371        14.7712       1.7704    
X             12.9983       13.3817       1.7700    
C             12.3559       13.7688       1.7702    
S             10.7022       13.0556       1.7707    
C             9.7660        14.5866       1.7702    
C             12.2356       15.3147       1.7698    
X             5.4767        18.6171       1.7694    
C             6.1189        18.2297       1.7699    
S             7.7728        18.9425       1.7695    
C             8.7086        17.4113       1.7700    
C             7.7256        16.2239       1.7703    
C             6.2388        16.6838       1.7706    
C             10.2375       17.2267       1.7697    
H             13.1262       16.0263       1.7692    
H             7.5237        13.8821       1.7707    
H             5.3480        15.9724       1.7705    
H             10.9510       18.1159       1.7698    
0         5     A     
0         6     A     
0         13    A     
1         11    A     
1         5     A     
1         15    S     
2         3     S     
3         4     A     
3         6     A     
4         5     A     
6         14    S     
7         8     S     
8         9     A     
8         12    A     
9         10    A     
10        13    A     
10        11    A     
11        12    A     
12        16    S     
13        17    S     
