15
mol to xyz file
C             -1.3577       1.3962        -0.0108   
C             -0.5701       0.0658        -0.0155   
C             0.9815        0.0658        -0.0151   
C             1.7699        1.3959        -0.0110   
C             0.9844        2.7131        -0.0051   
C             -0.5718       2.7132        -0.0049   
C             -1.1814       4.1389        0.0068    
S             0.2064        5.2668        0.0190    
C             1.5938        4.1387        0.0078    
X             -1.9098       4.3176        0.0070    
X             2.3222        4.3175        0.0074    
H             -2.4976       1.4126        -0.0117   
H             -1.1292       -0.9276       -0.0194   
H             1.5514        -0.9215       -0.0178   
H             2.9098        1.3829        -0.0124   
0         11    S     
0         5     A     
0         1     A     
1         2     A     
1         12    S     
2         13    S     
2         3     A     
3         14    S     
3         4     A     
4         5     A     
4         8     A     
5         6     A     
6         9     S     
6         7     A     
7         8     A     
8         10    S     
