16
mol to xyz file
C             -1.3542       1.1703        0.0000    
C             -0.5842       -0.1634       0.0000    
C             0.9558        -0.1634       0.0000    
C             1.7258        1.1703        0.0000    
C             0.9558        2.5040        0.0000    
C             -0.5842       2.5040        0.0000    
N             -1.0057       3.9720        0.0008    
C             0.1859        4.7871        0.0002    
C             1.3774        3.9718        0.0015    
H             -1.1542       -1.1506       0.0000    
H             1.5258        -1.1506       0.0000    
H             -2.0828       4.2401        0.0018    
H             0.0989        5.9238        -0.0012   
H             2.4836        4.2471        0.0034    
X             2.4758        1.1703        0.0000    
X             -2.1042       1.1703        0.0000    
0         15    S     
0         5     A     
0         1     A     
1         2     A     
1         9     S     
2         10    S     
2         3     A     
3         14    S     
3         4     A     
4         5     A     
4         8     A     
5         6     A     
6         11    S     
6         7     A     
7         8     A     
7         12    S     
8         13    S     
