15
mol to xyz file
C             -1.3786       1.1927        -0.0807   
C             -0.5918       -0.1280       -0.2651   
C             0.9637        -0.1291       -0.2649   
C             1.7478        1.1917        -0.0806   
C             0.9375        2.4780        0.1006    
C             -0.5771       2.4863        0.1029    
O             -1.0939       3.8988        0.3077    
C             0.1450        4.7793        0.4359    
C             1.4133        3.9123        0.3100    
X             -2.1286       1.1984        -0.0808   
H             -1.1578       -1.1080       -0.4019   
H             1.5296        -1.1092       -0.4018   
X             2.4977        1.2012        -0.0799   
H             2.4938        4.2717        0.3625    
H             0.1346        5.9073        0.6009    
0         9     S     
0         1     A     
0         5     A     
1         2     A     
1         10    S     
2         11    S     
2         3     A     
3         12    S     
3         4     A     
4         5     A     
4         8     A     
5         6     A     
6         7     A     
7         8     A     
7         14    S     
8         13    S     
