18
mol to xyz file
C             -1.3611       1.1812        -0.0787   
C             -0.5868       -0.1387       -0.2393   
C             0.9505        -0.1392       -0.2378   
C             1.7254        1.1799        -0.0762   
C             0.9555        2.5137        0.0598    
C             -0.5899       2.5144        0.0593    
X             -2.1108       1.1610        -0.0670   
H             -1.1552       -1.1201       -0.3540   
H             1.5185        -1.1211       -0.3518   
X             2.4750        1.1589        -0.0631   
C             -1.3545       3.8476        0.1948    
C             -0.5849       5.1725        0.3332    
C             0.9523        5.1719        0.3342    
C             1.7211        3.8463        0.1968    
H             -2.4920       3.8582        0.1916    
H             -1.1546       6.1548        0.4341    
H             1.5226        6.1538        0.4348    
H             2.8587        3.8561        0.1944    
0         6     S     
0         1     A     
0         5     A     
1         2     A     
1         7     S     
2         8     S     
2         3     A     
3         9     S     
3         4     A     
4         5     A     
4         13    A     
5         10    A     
10        14    S     
10        11    A     
11        12    A     
11        15    S     
12        13    A     
12        16    S     
13        17    S     
