62
mol to xyz file
C             6.0850        -2.0814       -0.0452   
C             5.3144        -3.4141       -0.0553   
C             5.3148        4.5834        0.0378    
C             6.0854        3.2505        0.0268    
C             7.6251        3.2497        0.0251    
C             8.3947        4.5834        0.0207    
C             7.6240        5.9166        0.0179    
C             6.0843        5.9169        0.0325    
C             6.0842        -4.7478       -0.0502   
C             7.6241        -4.7476       -0.0359   
C             8.3949        -3.4143       -0.0388   
C             7.6250        -2.0806       -0.0435   
H             8.1946        2.2620        0.0232    
H             9.5346        4.5841        0.0156    
X             7.9989        6.5662        0.0081    
H             5.5145        6.9043        0.0368    
H             5.5145        -5.7353       -0.0538   
X             7.9989        -5.3972       -0.0258   
H             9.5349        -3.4150       -0.0347   
H             8.1943        -1.0928       -0.0426   
C             -1.6118       0.5849        -0.0093   
C             -0.8407       -3.4140       -0.0557   
C             -1.6111       -2.0810       -0.0456   
C             -1.6108       3.2505        0.0270    
C             -0.8400       4.5832        0.0373    
C             -1.6094       5.9172        0.0322    
C             -3.1493       5.9174        0.0175    
C             -3.9202       4.5841        0.0210    
C             -3.1505       3.2502        0.0254    
C             -3.1509       -2.0804       -0.0433   
C             -3.9206       -3.4140       -0.0390   
C             -3.1503       -4.7472       -0.0360   
C             -1.6106       -4.7477       -0.0507   
H             -1.0394       6.9045        0.0361    
X             -3.5240       6.5670        0.0075    
H             -5.0602       4.5848        0.0159    
H             -3.7199       2.2624        0.0246    
H             -3.7205       -1.0928       -0.0423   
H             -5.0606       -3.4146       -0.0346   
X             -3.5250       -5.3968       -0.0259   
H             -1.0411       -5.7352       -0.0551   
C             -0.8415       -0.7483       -0.0314   
C             0.6981        -0.7485       -0.0325   
C             1.4674        0.5847        -0.0094   
C             0.6981        1.9180        0.0140    
C             -0.8415       1.9176        0.0126    
C             3.7759        1.9181        0.0138    
C             3.0064        0.5845        -0.0092   
C             3.7756        -0.7491       -0.0325   
C             5.3153        -0.7486       -0.0307   
C             5.3156        1.9177        0.0126    
C             6.0856        0.5846        -0.0090   
H             4.1743        -3.4129       -0.0627   
H             4.1748        4.5823        0.0455    
H             -2.7520       0.5852        -0.0097   
H             1.2683        -1.7356       -0.0496   
H             1.2681        2.9053        0.0318    
H             3.2056        2.9052        0.0318    
H             3.2054        -1.7363       -0.0503   
H             7.2258        0.5846        -0.0087   
H             0.2993        -3.4130       -0.0628   
H             0.3000        4.5819        0.0440    
0         11    A     
0         49    S     
0         1     A     
1         52    S     
1         8     A     
2         7     A     
2         53    S     
2         3     A     
3         4     A     
3         50    S     
4         5     A     
4         12    S     
5         6     A     
5         13    S     
6         7     A     
6         14    S     
7         15    S     
8         16    S     
8         9     A     
9         17    S     
9         10    A     
10        18    S     
10        11    A     
11        19    S     
20        41    A     
20        54    S     
20        45    A     
21        60    S     
21        22    A     
21        32    A     
22        29    A     
22        41    S     
23        28    A     
23        24    A     
23        45    S     
24        25    A     
24        61    S     
25        26    A     
25        33    S     
26        27    A     
26        34    S     
27        35    S     
27        28    A     
28        36    S     
29        37    S     
29        30    A     
30        38    S     
30        31    A     
31        39    S     
31        32    A     
32        40    S     
41        42    A     
42        43    A     
42        55    S     
43        44    A     
43        47    S     
44        45    A     
44        56    S     
46        50    A     
46        57    S     
46        47    A     
47        48    A     
48        49    A     
48        58    S     
49        51    A     
50        51    A     
51        59    S     
