86
mol to xyz file
C             -4.4182       2.6796        -0.0690   
C             -3.6270       1.3675        0.1842    
C             -2.0774       1.3684        0.3772    
C             -1.2868       2.6813        0.6280    
C             -2.0010       3.9607        1.1051    
C             -3.7034       3.9593        -0.5459   
C             -1.2978       0.0310        0.4068    
C             -1.9261       -1.2250       1.0411    
C             -3.7761       -1.2284       -0.4701   
C             -4.4058       0.0298        0.1578    
C             -1.2392       5.2989        1.1563    
C             0.2650        5.3368        0.8372    
C             1.0241        4.0237        0.5895    
C             0.2512        2.6959        0.4985    
C             -5.9561       2.6937        0.0572    
C             -6.7287       4.0215        -0.0357   
C             -5.9699       5.3345        -0.2832   
C             -4.4651       5.2974        -0.5993   
C             -1.1695       -2.5659       1.0206    
C             0.2605        -2.6322       0.4564    
C             0.9271        -1.3609       -0.0952   
C             0.1347        -0.0422       -0.1569   
C             -5.8399       -0.0415       0.7179    
C             -6.6324       -1.3599       0.6586    
C             -5.9638       -2.6336       0.1139    
C             -4.5322       -2.5694       -0.4458   
C             -5.9647       -5.2910       -0.1021   
C             -6.7214       -3.9731       0.1440    
C             1.0195        -3.9710       0.4325    
C             0.2645        -5.2870       0.6960    
C             1.0067        6.6817        0.7341    
C             0.2205        8.0040        0.7988    
C             -5.9252       8.0012        -0.2459   
C             -6.7120       6.6791        -0.1816   
C             1.0103        -6.6316       0.6122    
C             2.5271        -6.6545       0.3477    
C             3.2895        -5.3342       0.1250    
C             2.5292        -3.9953       0.1299    
C             -8.2329       -3.9954       0.4369    
C             -8.9937       -5.3341       0.4526    
C             -8.2296       -6.6559       0.2499    
C             -6.7113       -6.6344       -0.0079   
C             0.9506        9.3431        0.5849    
C             2.4748        9.3626        0.3628    
C             3.2654        8.0420        0.3334    
C             2.5300        6.7005        0.5085    
C             -8.2355       6.6986        0.0423    
C             -8.9707       8.0404        0.2133    
C             -8.1793       9.3610        0.1855    
C             -6.6548       9.3406        -0.0334   
X             4.0081        8.0525        0.2296    
X             0.5628        9.9850        0.5791    
X             -6.2666       9.9823        -0.0270   
X             -9.7137       8.0513        0.3149    
X             -9.7365       -5.3407       0.5558    
X             -6.3336       -7.2783       -0.0802   
X             4.0317        -5.3420       0.0175    
X             0.6337        -7.2750       0.6939    
H             -1.7904       6.2585        1.4303    
H             2.1581        4.0341        0.4733    
H             -7.8629       4.0303        0.0790    
H             -3.9133       6.2568        -0.8726   
H             -1.6688       -3.5083       1.4233    
H             2.0072        -1.3951       -0.4581   
H             -7.7138       -1.3917       1.0182    
H             -4.0312       -3.5135       -0.8422   
H             -4.8530       -5.2716       -0.3537   
H             -0.8459       -5.2655       0.9530    
H             -0.9007       7.9911        1.0048    
H             -4.8038       7.9892        -0.4506   
H             3.0854        -7.6479       0.3167    
H             3.0822        -3.0229       -0.0902   
H             -8.7882       -3.0212       0.6420    
H             -8.7878       -7.6491       0.2908    
H             3.0173        10.3550       0.2202    
H             3.1129        5.7215        0.4713    
H             -8.8184       5.7198        0.0813    
H             -8.7216       10.3537       0.3268    
H             -3.0955       3.9184        1.4212    
H             -2.6084       3.9171        -0.8602   
H             -2.9550       -1.1638       1.5280    
H             -2.7460       -1.1636       -0.9542   
H             0.8187        1.7209        0.3350    
H             -6.5236       1.7184        0.2199    
H             0.6122        0.8826        -0.6221   
H             -6.3185       0.8848        1.1788    
0         5     A     
0         14    A     
0         1     S     
1         9     S     
1         2     D     
2         3     S     
2         6     S     
3         4     A     
3         13    A     
4         78    S     
4         10    A     
5         79    S     
5         17    A     
6         7     A     
6         21    A     
7         80    S     
7         18    A     
8         25    A     
8         81    S     
8         9     A     
9         22    A     
10        11    A     
10        58    S     
11        30    S     
11        12    A     
12        13    A     
12        59    S     
13        82    S     
14        15    A     
14        83    S     
15        60    S     
15        16    A     
16        17    A     
16        33    S     
17        61    S     
18        19    A     
18        62    S     
19        28    S     
19        20    A     
20        63    S     
20        21    A     
21        84    S     
22        85    S     
22        23    A     
23        64    S     
23        24    A     
24        25    A     
24        27    S     
25        65    S     
26        66    S     
26        27    A     
26        41    A     
27        38    A     
28        29    A     
28        37    A     
29        67    S     
29        34    A     
30        45    A     
30        31    A     
31        42    A     
31        68    S     
32        49    A     
32        69    S     
32        33    A     
33        46    A     
34        57    S     
34        35    A     
35        70    S     
35        36    A     
36        56    S     
36        37    A     
37        71    S     
38        72    S     
38        39    A     
39        54    S     
39        40    A     
40        41    A     
40        73    S     
41        55    S     
42        43    A     
42        51    S     
43        44    A     
43        74    S     
44        45    A     
44        50    S     
45        75    S     
46        47    A     
46        76    S     
47        48    A     
47        53    S     
48        49    A     
48        77    S     
49        52    S     
