84
mol to xyz file
N             -2.3380       3.7133        0.0141    
C             -1.6102       2.3933        -0.0483   
C             -0.0774       2.3541        0.0697    
N             0.6993        3.6416        0.2056    
C             -0.0307       4.9560        0.3600    
C             -1.5680       5.0021        0.1801    
C             0.6564        0.9996        0.0939    
C             -0.1473       -0.3115       0.0286    
C             -1.6768       -0.2685       -0.1525   
C             -2.4014       1.0854        -0.2315   
N             0.5687        -1.6381       0.1068    
C             2.0762        -1.6861       0.1922    
C             2.8730        -0.3703       0.3592    
N             2.1597        0.9548        0.2229    
N             -3.8882       1.1305        -0.4837   
C             -4.6748       -0.1489       -0.6440   
C             -3.9334       -1.5078       -0.6334   
N             -2.4618       -1.5504       -0.2919   
C             5.2065        0.9038        0.5122    
C             4.3711        -0.3717       0.7317    
C             -6.2104       -0.0592       -0.7708   
C             -6.8541       1.2705        -1.2062   
C             5.0215        -1.6068       1.3830    
C             6.5230        -1.6004       1.7238    
C             7.3693        -0.3451       1.4461    
C             6.7071        0.9140        0.8586    
C             -8.3806       1.3685        -1.3822   
C             -9.2681       0.1440        -1.0976   
C             -8.6337       -1.1647       -0.5935   
C             -7.1073       -1.2596       -0.4134   
C             -2.3419       6.3367        0.1228    
C             -1.6292       7.6522        -0.2440   
C             0.0891        7.3908        1.4786    
C             0.7756        6.2060        0.7725    
C             2.2981        6.2358        0.5400    
C             3.1133        7.4864        0.9192    
C             2.4107        8.6993        1.5553    
C             0.9017        8.6439        1.8530    
C             -2.4080       8.9805        -0.2341   
C             -3.9088       8.9904        0.1090    
C             -4.6405       7.6665        0.3934    
C             -3.8593       6.3396        0.3871    
C             -4.0135       -4.1695       -0.6304   
C             -4.6375       -2.8208       -1.0367   
C             4.2601        -3.1313       -0.3853   
C             2.7839        -3.0503       0.0469    
C             1.9823        -4.3463       0.2727    
C             2.6787        -5.7150       0.1584    
C             4.1722        -5.7896       -0.2054   
C             4.9591        -4.4989       -0.4938   
C             -5.9141       -2.7996       -1.8984   
C             -6.6231       -4.1171       -2.2609   
C             -6.0354       -5.4602       -1.7934   
C             -4.7185       -5.4884       -0.9975   
X             -4.2827       9.6398        0.1390    
X             2.8035        9.3163        1.7214    
X             8.1040        -0.3459       1.5968    
X             4.5167        -6.4549       -0.2410   
X             -6.3911       -6.1009       -1.9529   
X             -10.0090      0.1861        -1.2060   
H             4.7161        1.8373        0.0789    
H             -6.1973       2.1781        -1.4171   
H             7.0080        -2.5252       2.1810    
H             7.3290        1.8517        0.6752    
H             -8.8534       2.3457        -1.7303   
H             -9.2933       -2.0641       -0.3570   
H             2.8192        5.3379        0.0692    
H             4.2360        7.5163        0.7234    
H             0.3854        9.5319        2.3474    
H             -1.8724       9.9573        -0.4762   
H             -5.7585       7.6696        0.6168    
H             -4.4010       5.3593        0.5996    
H             -3.0384       -4.1903       -0.0400   
H             0.8756        -4.2912       0.5406    
H             2.0903        -6.6727       0.3491    
H             6.0598        -4.5559       -0.7852   
H             -7.5855       -4.0982       -2.8718   
H             -4.2690       -6.4854       -0.6750   
H             4.3917        -2.5305       1.6062    
H             -6.6392       -2.2242       -0.0261   
H             -0.5203       7.6446        -0.5089   
H             -1.0248       7.3439        1.7161    
H             4.8388        -2.1766       -0.6160   
H             -6.3395       -1.8062       -2.2614   
0         5     A     
0         1     A     
1         9     A     
1         2     A     
2         3     A     
2         6     A     
3         4     A     
4         5     A     
4         33    S     
5         30    S     
6         13    A     
6         7     A     
7         10    A     
7         8     A     
8         17    A     
8         9     A     
9         14    A     
10        11    A     
11        12    A     
11        45    S     
12        19    S     
12        13    A     
14        15    A     
15        16    A     
15        20    S     
16        17    A     
16        43    S     
18        25    A     
18        60    S     
18        19    A     
19        22    A     
20        29    A     
20        21    A     
21        26    A     
21        61    S     
22        23    A     
22        78    S     
23        24    A     
23        62    S     
24        56    S     
24        25    A     
25        63    S     
26        27    A     
26        64    S     
27        59    S     
27        28    A     
28        29    A     
28        65    S     
29        79    S     
30        41    A     
30        31    A     
31        80    S     
31        38    A     
32        81    S     
32        33    A     
32        37    A     
33        34    A     
34        66    S     
34        35    A     
35        36    A     
35        67    S     
36        55    S     
36        37    A     
37        68    S     
38        69    S     
38        39    A     
39        54    S     
39        40    A     
40        70    S     
40        41    A     
41        71    S     
42        72    S     
42        43    A     
42        53    A     
43        50    A     
44        82    S     
44        49    A     
44        45    A     
45        46    A     
46        73    S     
46        47    A     
47        74    S     
47        48    A     
48        49    A     
48        57    S     
49        75    S     
50        83    S     
50        51    A     
51        76    S     
51        52    A     
52        58    S     
52        53    A     
53        77    S     
