26
mol to xyz file
C             2.8469        74.9602       35.1401   
C             3.8738        73.9897       35.7014   
C             3.5352        73.6051       36.9650   
C             2.2060        74.2125       37.3832   
C             1.6352        74.8196       36.0843   
C             5.0638        73.6609       34.9069   
C             4.3277        72.8556       37.9477   
C             6.1398        72.8533       35.2952   
S             7.3261        72.7486       34.0292   
C             6.4021        73.7832       32.9668   
C             5.2217        74.1588       33.5814   
C             5.6064        72.3520       37.7075   
S             6.2905        71.6305       39.1360   
C             4.8630        72.0014       40.0790   
C             3.9224        72.6552       39.3018   
X             6.6706        73.9842       32.2960   
X             4.8400        71.8313       40.8091   
H             2.9021        73.0239       39.6520   
H             6.2822        73.2009       37.3579   
H             5.5546        71.5565       36.8925   
H             5.7561        71.8076       35.5375   
H             6.6323        73.2967       36.2228   
H             4.4091        74.8091       33.1162   
H             2.8037        75.6853       34.2615   
H             0.6000        75.1456       35.7355   
H             1.8626        74.1407       38.4679   
0         23    S     
0         1     D     
0         4     S     
1         5     S     
1         2     S     
2         6     D     
2         3     S     
3         4     D     
3         25    S     
4         24    S     
5         7     S     
5         10    D     
6         11    S     
6         14    S     
7         20    S     
7         8     S     
7         21    S     
8         9     D     
9         15    S     
9         10    S     
10        22    S     
11        18    S     
11        19    S     
11        12    S     
12        13    S     
13        14    D     
13        16    S     
14        17    S     
