12
mol to xyz file
C             0.2976        15.8559       0.0000    
C             1.3652        16.7883       0.0000    
O             0.5212        14.7230       0.0000    
C             1.0361        18.1659       0.0000    
C             -0.3052       18.6242       0.0000    
O             1.9054        18.9260       0.0000    
C             -1.3337       17.6505       0.0000    
C             -1.0600       16.2597       0.0000    
O             -2.4266       18.0233       0.0000    
X             -0.4500       19.3601       0.0000    
X             2.0749        16.5458       0.0000    
X             -1.6046       15.7441       0.0000    
0         2     S     
0         1     A     
0         7     A     
1         10    S     
1         3     A     
3         4     A     
3         5     S     
4         9     S     
4         6     A     
6         7     A     
6         8     S     
7         11    S     
