9
mol to xyz file
C             1.5849        -1.7865       -1.9447   
N             1.5607        -1.3780       -0.4539   
N             2.8542        -0.6153       -0.0341   
C             3.8429        -0.4541       -1.2102   
S             3.1293        -1.2215       -2.6701   
X             1.0244        -2.1588       -2.2759   
X             4.5087        -0.1111       -1.1702   
H             2.7419        -0.3678       1.0422    
H             0.9205        -1.4418       0.4506    
0         1     S     
0         4     D     
0         5     S     
1         2     S     
1         8     S     
2         3     S     
2         7     S     
3         6     S     
3         4     D     
