30
mol to xyz file
C             6.7741        14.3206       3.7907    
X             13.4114       14.7858       3.7907    
C             12.8139       15.2391       3.7907    
N             11.6094       14.5936       3.7907    
C             10.3987       15.2030       3.7907    
C             10.3197       16.6031       3.7907    
C             9.0597        17.2185       3.7907    
C             5.5338        14.9706       3.7907    
C             13.7724       17.6253       3.7907    
C             13.2842       18.9135       3.7907    
S             11.5902       19.0384       3.7907    
H             8.9647        18.2968       3.7907    
H             14.8257       17.4864       3.7907    
C             11.5210       17.3250       3.7907    
X             4.8837        16.8598       3.7907    
C             5.4812        16.4065       3.7907    
N             6.6857        17.0521       3.7907    
C             7.8964        16.4427       3.7907    
C             7.9755        15.0426       3.7907    
C             9.2354        14.4272       3.7907    
C             12.7614       16.6751       3.7907    
C             4.5228        14.0204       3.7907    
C             5.0110        12.7322       3.7907    
S             6.7049        12.6073       3.7907    
H             9.3305        13.3488       3.7907    
H             3.4695        14.1592       3.7907    
H             13.6872       19.4535       2.8712    
H             13.6520       19.4593       4.7215    
H             4.6080        12.1921       2.8712    
H             4.6431        12.1864       4.7215    
0         23    S     
0         7     S     
0         18    D     
1         2     S     
2         20    S     
2         3     D     
3         4     S     
4         5     S     
4         19    D     
5         13    D     
5         6     S     
6         11    S     
6         17    D     
7         15    S     
7         21    D     
8         9     S     
8         12    S     
8         20    D     
9         10    S     
9         26    S     
9         27    S     
10        13    S     
13        20    S     
14        15    S     
15        16    D     
16        17    S     
17        18    S     
18        19    S     
19        24    S     
21        25    S     
21        22    S     
22        23    S     
22        28    S     
22        29    S     
