C22
  MatStudio         3D                             0

 53 64  0  0  0  0  0  0  0  0999 V2000
    7.4740   21.5551   21.7091 C   0  0  0  0  0  0  0  0  0  1
    8.4028   22.4977   22.7083 C   0  0  0  0  0  0  0  0  0  2
    8.4652   20.5852   20.7987 C   0  0  0  0  0  0  0  0  0  3
    6.5793   22.5216   20.7068 C   0  0  0  0  0  0  0  0  0  4
    6.4640   20.6095   22.6202 C   0  0  0  0  0  0  0  0  0  5
    8.0375   23.8982   22.2330 C   0  0  0  0  0  0  0  0  0  6
    8.0234   19.1955   21.2399 C   0  0  0  0  0  0  0  0  0  7
    5.1634   22.0480   21.0147 C   0  0  0  0  0  0  0  0  0  8
    9.8069   22.0345   22.3546 C   0  0  0  0  0  0  0  0  0  9
    7.1075   22.1160   19.3415 C   0  0  0  0  0  0  0  0  0 10
    6.8674   21.0094   24.0322 C   0  0  0  0  0  0  0  0  0 11
    5.1004   21.0047   22.0688 C   0  0  0  0  0  0  0  0  0 12
    9.8410   20.9825   21.3086 C   0  0  0  0  0  0  0  0  0 13
    7.0320   23.9094   21.1423 C   0  0  0  0  0  0  0  0  0 14
    6.9251   19.2146   22.2355 C   0  0  0  0  0  0  0  0  0 15
    7.9319   22.0389   24.0814 C   0  0  0  0  0  0  0  0  0 16
    8.1514   21.0618   19.3853 C   0  0  0  0  0  0  0  0  0 17
    7.9723   25.2476   22.9695 C   0  0  0  0  0  0  0  0  0 18
    7.9806   17.8489   20.4963 C   0  0  0  0  0  0  0  0  0 19
    3.8077   22.7721   20.9644 C   0  0  0  0  0  0  0  0  0 20
   11.1330   22.8102   22.3109 C   0  0  0  0  0  0  0  0  0 21
    6.4049   22.0579   17.9780 C   0  0  0  0  0  0  0  0  0 22
    6.0833   21.0501   25.3537 C   0  0  0  0  0  0  0  0  0 23
    3.7059   21.0455   22.7164 C   0  0  0  0  0  0  0  0  0 24
   11.1903   21.0665   20.5781 C   0  0  0  0  0  0  0  0  0 25
    6.3043   25.2633   21.1598 C   0  0  0  0  0  0  0  0  0 26
    6.1472   17.8953   22.1350 C   0  0  0  0  0  0  0  0  0 27
    7.8501   22.7616   25.4365 C   0  0  0  0  0  0  0  0  0 28
    8.1505   20.3253   18.0340 C   0  0  0  0  0  0  0  0  0 29
    6.9148   26.0877   22.2770 N   0  0  0  0  0  0  0  0  0 30
    6.8336   17.0474   21.0816 N   0  0  0  0  0  0  0  0  0 31
    2.9118   22.1251   22.0041 N   0  0  0  0  0  0  0  0  0 32
   11.9917   22.1743   21.2343 N   0  0  0  0  0  0  0  0  0 33
    7.0836   20.9698   17.1691 N   0  0  0  0  0  0  0  0  0 34
    6.7214   22.1189   26.2192 N   0  0  0  0  0  0  0  0  0 35
    8.7970   25.6631   24.1628 O   0  0  0  0  0  0  0  0  0 36
    8.8913   17.4073   19.3776 O   0  0  0  0  0  0  0  0  0 37
    3.4333   23.9189   20.0585 O   0  0  0  0  0  0  0  0  0 38
   11.4641   24.0563   23.0975 O   0  0  0  0  0  0  0  0  0 39
    5.1859   22.8500   17.5695 O   0  0  0  0  0  0  0  0  0 40
    4.8932   20.1999   25.7240 O   0  0  0  0  0  0  0  0  0 41
    3.2218   20.1945   23.8651 O   0  0  0  0  0  0  0  0  0 42
   11.5908   20.2821   19.3522 O   0  0  0  0  0  0  0  0  0 43
    5.1770   25.6905   20.2528 O   0  0  0  0  0  0  0  0  0 44
    4.8721   17.5555   22.8680 O   0  0  0  0  0  0  0  0  0 45
    8.7199   23.9009   25.9071 O   0  0  0  0  0  0  0  0  0 46
    9.0338   19.1686   17.6372 O   0  0  0  0  0  0  0  0  0 47
    6.7115   26.7836   22.4690 F   0  0  0  0  0  0  0  0  0  0
    6.6232   16.3608   20.8652 F   0  0  0  0  0  0  0  0  0  0
    2.2036   22.3210   22.1546 F   0  0  0  0  0  0  0  0  0  0
   12.6779   22.3984   21.0309 F   0  0  0  0  0  0  0  0  0  0
    6.9008   20.7631   16.4718 F   0  0  0  0  0  0  0  0  0  0
    6.4995   22.3140   26.9085 F   0  0  0  0  0  0  0  0  0  0
  1  2  1  0  0  0
  1  5  1  0  0  0
  1  4  1  0  0  0
  1  3  1  0  0  0
  2  9  1  0  0  0
  2  6  1  0  0  0
  2 16  1  0  0  0
  3 13  1  0  0  0
  3  7  1  0  0  0
  3 17  1  0  0  0
  4  8  1  0  0  0
  4 14  1  0  0  0
  4 10  1  0  0  0
  5 12  1  0  0  0
  5 15  1  0  0  0
  5 11  1  0  0  0
  6 18  1  0  0  0
  6 14  2  0  0  0
  7 19  1  0  0  0
  7 15  2  0  0  0
  8 20  1  0  0  0
  8 12  2  0  0  0
  9 21  1  0  0  0
  9 13  2  0  0  0
 10 22  1  0  0  0
 10 17  2  0  0  0
 11 16  2  0  0  0
 11 23  1  0  0  0
 12 24  1  0  0  0
 13 25  1  0  0  0
 14 26  1  0  0  0
 15 27  1  0  0  0
 16 28  1  0  0  0
 17 29  1  0  0  0
 18 30  1  0  0  0
 18 36  2  0  0  0
 19 37  2  0  0  0
 19 31  1  0  0  0
 20 38  2  0  0  0
 20 32  1  0  0  0
 21 33  1  0  0  0
 21 39  2  0  0  0
 22 40  2  0  0  0
 22 34  1  0  0  0
 23 41  2  0  0  0
 23 35  1  0  0  0
 24 32  1  0  0  0
 24 42  2  0  0  0
 25 43  2  0  0  0
 25 33  1  0  0  0
 26 44  2  0  0  0
 26 30  1  0  0  0
 27 31  1  0  0  0
 27 45  2  0  0  0
 28 35  1  0  0  0
 28 46  2  0  0  0
 29 47  2  0  0  0
 29 34  1  0  0  0
 30 48  1  0  0  0
 31 49  1  0  0  0
 32 50  1  0  0  0
 33 51  1  0  0  0
 34 52  1  0  0  0
 35 53  1  0  0  0
M  $3D  6
M  $3D -9  9 N1-F
M  $3D 30 48    0.7500    0.7500
M  $3D -9  9 N6-F
M  $3D 35 53    0.7500    0.7500
M  $3D -9  9 N4-F
M  $3D 33 51    0.7500    0.7500
M  $3D -9  9 N5-F
M  $3D 34 52    0.7500    0.7500
M  $3D -9  9 N2-F
M  $3D 31 49    0.7500    0.7500
M  $3D -9  9 N3-F
M  $3D 32 50    0.7500    0.7500
M  END
