C27
  MatStudio         3D                             0

104124  0  0  0  0  0  0  0  0999 V2000
   10.2917    3.7279    1.7656 O   0  0  0  0  0  0  0  0  0  1
    7.9715    3.5894    1.7656 O   0  0  0  0  0  0  0  0  0  2
   14.6026   21.1664    1.7656 O   0  0  0  0  0  0  0  0  0  3
   16.9228   21.3049    1.7656 O   0  0  0  0  0  0  0  0  0  4
   21.1664   10.2917    1.7656 O   0  0  0  0  0  0  0  0  0  5
   21.3049    7.9715    1.7656 O   0  0  0  0  0  0  0  0  0  6
    3.7279   14.6026    1.7656 O   0  0  0  0  0  0  0  0  0  7
    3.5894   16.9228    1.7656 O   0  0  0  0  0  0  0  0  0  8
   14.6026    3.7279    1.7656 O   0  0  0  0  0  0  0  0  0  9
   16.9228    3.5894    1.7656 O   0  0  0  0  0  0  0  0  0 10
   10.2917   21.1664    1.7656 O   0  0  0  0  0  0  0  0  0 11
    7.9715   21.3049    1.7656 O   0  0  0  0  0  0  0  0  0 12
    3.7279   10.2917    1.7656 O   0  0  0  0  0  0  0  0  0 13
    3.5894    7.9715    1.7656 O   0  0  0  0  0  0  0  0  0 14
   21.1664   14.6026    1.7656 O   0  0  0  0  0  0  0  0  0 15
   21.3049   16.9228    1.7656 O   0  0  0  0  0  0  0  0  0 16
    9.1830    2.8959    1.7656 B   0  0  0  0  0  0  0  0  0 17
   15.7113   21.9984    1.7656 B   0  0  0  0  0  0  0  0  0 18
   21.9984    9.1830    1.7656 B   0  0  0  0  0  0  0  0  0 19
    2.8959   15.7113    1.7656 B   0  0  0  0  0  0  0  0  0 20
   15.7113    2.8959    1.7656 B   0  0  0  0  0  0  0  0  0 21
    9.1830   21.9984    1.7656 B   0  0  0  0  0  0  0  0  0 22
    2.8959    9.1830    1.7656 B   0  0  0  0  0  0  0  0  0 23
   21.9984   15.7113    1.7656 B   0  0  0  0  0  0  0  0  0 24
   15.1425   19.8911    1.7656 C   0  0  0  0  0  0  0  0  0 25
   14.4434   18.6820    1.7656 C   0  0  0  0  0  0  0  0  0 26
   15.2125   17.5167    1.7656 C   0  0  0  0  0  0  0  0  0 27
   16.5919   17.6036    1.7656 C   0  0  0  0  0  0  0  0  0 28
   17.2760   18.8472    1.7656 C   0  0  0  0  0  0  0  0  0 29
   16.5202   19.9866    1.7656 C   0  0  0  0  0  0  0  0  0 30
   13.0512   18.6594    1.7656 C   0  0  0  0  0  0  0  0  0 31
    9.7518    5.0032    1.7656 C   0  0  0  0  0  0  0  0  0 32
   10.4509    6.2123    1.7656 C   0  0  0  0  0  0  0  0  0 33
    9.6818    7.3776    1.7656 C   0  0  0  0  0  0  0  0  0 34
    8.3024    7.2907    1.7656 C   0  0  0  0  0  0  0  0  0 35
    7.6183    6.0471    1.7656 C   0  0  0  0  0  0  0  0  0 36
    8.3741    4.9077    1.7656 C   0  0  0  0  0  0  0  0  0 37
   11.8431    6.2349    1.7656 C   0  0  0  0  0  0  0  0  0 38
    5.0032   15.1425    1.7656 C   0  0  0  0  0  0  0  0  0 39
    6.2123   14.4434    1.7656 C   0  0  0  0  0  0  0  0  0 40
    7.3776   15.2125    1.7656 C   0  0  0  0  0  0  0  0  0 41
    7.2907   16.5919    1.7656 C   0  0  0  0  0  0  0  0  0 42
    6.0471   17.2760    1.7656 C   0  0  0  0  0  0  0  0  0 43
    4.9077   16.5202    1.7656 C   0  0  0  0  0  0  0  0  0 44
    6.2349   13.0512    1.7656 C   0  0  0  0  0  0  0  0  0 45
   19.8911    9.7518    1.7656 C   0  0  0  0  0  0  0  0  0 46
   18.6820   10.4509    1.7656 C   0  0  0  0  0  0  0  0  0 47
   17.5167    9.6818    1.7656 C   0  0  0  0  0  0  0  0  0 48
   17.6036    8.3024    1.7656 C   0  0  0  0  0  0  0  0  0 49
   18.8472    7.6183    1.7656 C   0  0  0  0  0  0  0  0  0 50
   19.9866    8.3741    1.7656 C   0  0  0  0  0  0  0  0  0 51
   18.6594   11.8431    1.7656 C   0  0  0  0  0  0  0  0  0 52
    9.7518   19.8911    1.7656 C   0  0  0  0  0  0  0  0  0 53
   10.4509   18.6820    1.7656 C   0  0  0  0  0  0  0  0  0 54
    9.6818   17.5167    1.7656 C   0  0  0  0  0  0  0  0  0 55
    8.3024   17.6036    1.7656 C   0  0  0  0  0  0  0  0  0 56
    7.6183   18.8472    1.7656 C   0  0  0  0  0  0  0  0  0 57
    8.3741   19.9866    1.7656 C   0  0  0  0  0  0  0  0  0 58
   11.8431   18.6594    1.7656 C   0  0  0  0  0  0  0  0  0 59
   15.1425    5.0032    1.7656 C   0  0  0  0  0  0  0  0  0 60
   14.4434    6.2123    1.7656 C   0  0  0  0  0  0  0  0  0 61
   15.2125    7.3776    1.7656 C   0  0  0  0  0  0  0  0  0 62
   16.5919    7.2907    1.7656 C   0  0  0  0  0  0  0  0  0 63
   17.2760    6.0471    1.7656 C   0  0  0  0  0  0  0  0  0 64
   16.5202    4.9077    1.7656 C   0  0  0  0  0  0  0  0  0 65
   13.0512    6.2349    1.7656 C   0  0  0  0  0  0  0  0  0 66
   19.8911   15.1425    1.7656 C   0  0  0  0  0  0  0  0  0 67
   18.6820   14.4434    1.7656 C   0  0  0  0  0  0  0  0  0 68
   17.5167   15.2125    1.7656 C   0  0  0  0  0  0  0  0  0 69
   17.6036   16.5919    1.7656 C   0  0  0  0  0  0  0  0  0 70
   18.8472   17.2760    1.7656 C   0  0  0  0  0  0  0  0  0 71
   19.9866   16.5202    1.7656 C   0  0  0  0  0  0  0  0  0 72
   18.6594   13.0512    1.7656 C   0  0  0  0  0  0  0  0  0 73
    5.0032    9.7518    1.7656 C   0  0  0  0  0  0  0  0  0 74
    6.2123   10.4509    1.7656 C   0  0  0  0  0  0  0  0  0 75
    7.3776    9.6818    1.7656 C   0  0  0  0  0  0  0  0  0 76
    7.2907    8.3024    1.7656 C   0  0  0  0  0  0  0  0  0 77
    6.0471    7.6183    1.7656 C   0  0  0  0  0  0  0  0  0 78
    4.9077    8.3741    1.7656 C   0  0  0  0  0  0  0  0  0 79
    6.2349   11.8431    1.7656 C   0  0  0  0  0  0  0  0  0 80
   14.7010   16.5350    1.7656 H   0  0  0  0  0  0  0  0  0 81
   10.1933    8.3593    1.7656 H   0  0  0  0  0  0  0  0  0 82
    8.3593   14.7010    1.7656 H   0  0  0  0  0  0  0  0  0 83
   16.5350   10.1933    1.7656 H   0  0  0  0  0  0  0  0  0 84
   10.1933   16.5350    1.7656 H   0  0  0  0  0  0  0  0  0 85
   14.7010    8.3593    1.7656 H   0  0  0  0  0  0  0  0  0 86
   16.5350   14.7010    1.7656 H   0  0  0  0  0  0  0  0  0 87
    8.3593   10.1933    1.7656 H   0  0  0  0  0  0  0  0  0 88
   19.3619    5.5324    1.7656 H   0  0  0  0  0  0  0  0  0 89
    5.5324   19.3619    1.7656 H   0  0  0  0  0  0  0  0  0 90
   19.3619   19.3619    1.7656 H   0  0  0  0  0  0  0  0  0 91
    5.5324    5.5324    1.7656 H   0  0  0  0  0  0  0  0  0 92
   18.6397    6.2546    1.7656 N   0  0  0  0  0  0  0  0  0 93
    6.2546   18.6397    1.7656 N   0  0  0  0  0  0  0  0  0 94
   18.6397   18.6397    1.7656 N   0  0  0  0  0  0  0  0  0 95
    6.2546    6.2546    1.7656 N   0  0  0  0  0  0  0  0  0 96
    9.2729    2.1513    1.7656 F   0  0  0  0  0  0  0  0  0  0
   15.6214   22.7430    1.7656 F   0  0  0  0  0  0  0  0  0  0
   22.7430    9.2729    1.7656 F   0  0  0  0  0  0  0  0  0  0
    2.1513   15.6214    1.7656 F   0  0  0  0  0  0  0  0  0  0
   15.6214    2.1513    1.7656 F   0  0  0  0  0  0  0  0  0  0
    9.2729   22.7430    1.7656 F   0  0  0  0  0  0  0  0  0  0
    2.1513    9.2729    1.7656 F   0  0  0  0  0  0  0  0  0  0
   22.7430   15.6214    1.7656 F   0  0  0  0  0  0  0  0  0  0
  1 32  1  0  0  0
  1 17  1  0  0  0
  2 37  1  0  0  0
  2 17  1  0  0  0
  3 25  1  0  0  0
  3 18  1  0  0  0
  4 18  1  0  0  0
  4 30  1  0  0  0
  5 46  1  0  0  0
  5 19  1  0  0  0
  6 51  1  0  0  0
  6 19  1  0  0  0
  7 39  1  0  0  0
  7 20  1  0  0  0
  8 44  1  0  0  0
  8 20  1  0  0  0
  9 60  1  0  0  0
  9 21  1  0  0  0
 10 65  1  0  0  0
 10 21  1  0  0  0
 11 53  1  0  0  0
 11 22  1  0  0  0
 12 22  1  0  0  0
 12 58  1  0  0  0
 13 74  1  0  0  0
 13 23  1  0  0  0
 14 79  1  0  0  0
 14 23  1  0  0  0
 15 67  1  0  0  0
 15 24  1  0  0  0
 16 72  1  0  0  0
 16 24  1  0  0  0
 25 30  4  0  0  0
 25 26  4  0  0  0
 26 31  1  0  0  0
 26 27  4  0  0  0
 27 81  1  0  0  0
 27 28  4  0  0  0
 28 70  4  0  0  0
 28 29  4  0  0  0
 29 95  4  0  0  0
 29 30  4  0  0  0
 31 59  3  0  0  0
 32 37  4  0  0  0
 32 33  4  0  0  0
 33 38  1  0  0  0
 33 34  4  0  0  0
 34 82  1  0  0  0
 34 35  4  0  0  0
 35 77  4  0  0  0
 35 36  4  0  0  0
 36 96  4  0  0  0
 36 37  4  0  0  0
 38 66  3  0  0  0
 39 40  4  0  0  0
 39 44  4  0  0  0
 40 41  4  0  0  0
 40 45  1  0  0  0
 41 83  1  0  0  0
 41 42  4  0  0  0
 42 56  4  0  0  0
 42 43  4  0  0  0
 43 44  4  0  0  0
 43 94  4  0  0  0
 45 80  3  0  0  0
 46 47  4  0  0  0
 46 51  4  0  0  0
 47 48  4  0  0  0
 47 52  1  0  0  0
 48 84  1  0  0  0
 48 49  4  0  0  0
 49 63  4  0  0  0
 49 50  4  0  0  0
 50 51  4  0  0  0
 50 93  4  0  0  0
 52 73  3  0  0  0
 53 58  4  0  0  0
 53 54  4  0  0  0
 54 59  1  0  0  0
 54 55  4  0  0  0
 55 85  1  0  0  0
 55 56  4  0  0  0
 56 57  4  0  0  0
 57 94  4  0  0  0
 57 58  4  0  0  0
 60 65  4  0  0  0
 60 61  4  0  0  0
 61 66  1  0  0  0
 61 62  4  0  0  0
 62 86  1  0  0  0
 62 63  4  0  0  0
 63 64  4  0  0  0
 64 93  4  0  0  0
 64 65  4  0  0  0
 67 68  4  0  0  0
 67 72  4  0  0  0
 68 69  4  0  0  0
 68 73  1  0  0  0
 69 87  1  0  0  0
 69 70  4  0  0  0
 70 71  4  0  0  0
 71 72  4  0  0  0
 71 95  4  0  0  0
 74 75  4  0  0  0
 74 79  4  0  0  0
 75 76  4  0  0  0
 75 80  1  0  0  0
 76 88  1  0  0  0
 76 77  4  0  0  0
 77 78  4  0  0  0
 78 79  4  0  0  0
 78 96  4  0  0  0
 89 93  1  0  0  0
 90 94  1  0  0  0
 91 95  1  0  0  0
 92 96  1  0  0  0
 17 97  1  0  0  0
 18 98  1  0  0  0
 19 99  1  0  0  0
 20100  1  0  0  0
 21101  1  0  0  0
 22102  1  0  0  0
 23103  1  0  0  0
 24104  1  0  0  0
M  $3D  8
M  $3D -9  9 B6-F
M  $3D 22102    0.7500    0.7500
M  $3D -9  9 B2-F
M  $3D 18 98    0.7500    0.7500
M  $3D -9  9 B8-F
M  $3D 24104    0.7500    0.7500
M  $3D -9  9 B3-F
M  $3D 19 99    0.7500    0.7500
M  $3D -9  9 B5-F
M  $3D 21101    0.7500    0.7500
M  $3D -9  9 B1-F
M  $3D 17 97    0.7500    0.7500
M  $3D -9  9 B7-F
M  $3D 23103    0.7500    0.7500
M  $3D -9  9 B4-F
M  $3D 20100    0.7500    0.7500
M  END
