C30
  MatStudio         3D                             0

 12 12  0  0  0  0  0  0  0  0999 V2000
    1.2452    9.5470    0.0001 B   0  0  0  0  0  0  0  0  0  1
    2.1802   10.0870    0.0000 H   0  0  0  0  0  0  0  0  0  2
   -1.2456    9.5468    0.0001 B   0  0  0  0  0  0  0  0  0  3
   -2.1807   10.0866    0.0004 H   0  0  0  0  0  0  0  0  0  4
    0.0000    7.3899    0.0003 B   0  0  0  0  0  0  0  0  0  5
    0.0001    6.3101    0.0004 H   0  0  0  0  0  0  0  0  0  6
   -0.0003   10.2894   -0.0002 N   0  0  0  0  0  0  0  0  0  7
   -1.2658    8.0970    0.0001 N   0  0  0  0  0  0  0  0  0  8
    1.2657    8.0972    0.0004 N   0  0  0  0  0  0  0  0  0  9
   -0.0340   10.7214    0.6120 F   0  0  0  0  0  0  0  0  0  0
   -1.6228    7.8520    0.6125 F   0  0  0  0  0  0  0  0  0  0
    1.6229    7.8521   -0.6119 F   0  0  0  0  0  0  0  0  0  0
  1  2  1  0  0  0
  1  9  1  0  0  0
  1  7  1  0  0  0
  3  4  1  0  0  0
  3  8  1  0  0  0
  3  7  1  0  0  0
  5  9  1  0  0  0
  5  8  1  0  0  0
  5  6  1  0  0  0
  7 10  1  0  0  0
  8 11  1  0  0  0
  9 12  1  0  0  0
M  $3D  3
M  $3D -9  9 N1-F
M  $3D  7 10    0.7500    0.7500
M  $3D -9  9 N2-F
M  $3D  8 11    0.7500    0.7500
M  $3D -9  9 N3-F
M  $3D  9 12    0.7500    0.7500
M  END
