C32
  MatStudio         3D                             0

 26 28  0  0  0  0  0  0  0  0999 V2000
   28.4010   42.6015   30.1662 C   0  0  0  0  0  0  0  0  0  1
   28.4010   42.6015   26.6358 C   0  0  0  0  0  0  0  0  0  2
   29.2867   41.6687   29.2867 C   0  0  0  0  0  0  0  0  0  3
   30.1662   42.6015   28.4010 C   0  0  0  0  0  0  0  0  0  4
   30.8243   43.2500   29.0688 H   0  0  0  0  0  0  0  0  0  5
   30.8294   41.9630   27.7286 H   0  0  0  0  0  0  0  0  0  6
   27.5153   43.5343   29.2867 C   0  0  0  0  0  0  0  0  0  7
   26.6358   42.6015   28.4010 C   0  0  0  0  0  0  0  0  0  8
   25.9777   41.9530   29.0688 H   0  0  0  0  0  0  0  0  0  9
   25.9726   43.2400   27.7286 H   0  0  0  0  0  0  0  0  0 10
   27.5153   41.6687   27.5153 C   0  0  0  0  0  0  0  0  0 11
   29.0734   41.9630   25.9726 H   0  0  0  0  0  0  0  0  0 12
   28.4010   40.8013   28.4010 C   0  0  0  0  0  0  0  0  0 13
   29.0546   40.1432   27.7382 H   0  0  0  0  0  0  0  0  0 14
   27.7444   40.1401   29.0576 H   0  0  0  0  0  0  0  0  0 15
   28.4010   44.4016   28.4010 C   0  0  0  0  0  0  0  0  0 16
   27.7189   43.2349   25.9777 H   0  0  0  0  0  0  0  0  0 17
   29.2867   43.5343   27.5153 C   0  0  0  0  0  0  0  0  0 18
   27.7474   45.0598   27.7382 H   0  0  0  0  0  0  0  0  0 19
   29.0576   45.0629   29.0576 H   0  0  0  0  0  0  0  0  0 20
   29.0831   43.2349   30.8243 H   0  0  0  0  0  0  0  0  0 21
   27.7286   41.9630   30.8294 H   0  0  0  0  0  0  0  0  0 22
   29.7209   41.2380   29.7209 F   0  0  0  0  0  0  0  0  0  0
   27.0811   43.9650   29.7209 F   0  0  0  0  0  0  0  0  0  0
   27.0811   41.2380   27.0811 F   0  0  0  0  0  0  0  0  0  0
   29.7209   43.9650   27.0811 F   0  0  0  0  0  0  0  0  0  0
  1 22  1  0  0  0
  1 21  1  0  0  0
  1  7  1  0  0  0
  1  3  1  0  0  0
  2 18  1  0  0  0
  2 11  1  0  0  0
  2 12  1  0  0  0
  2 17  1  0  0  0
  3 13  1  0  0  0
  3  4  1  0  0  0
  4  6  1  0  0  0
  4 18  1  0  0  0
  4  5  1  0  0  0
  7  8  1  0  0  0
  7 16  1  0  0  0
  8 10  1  0  0  0
  8  9  1  0  0  0
  8 11  1  0  0  0
 11 13  1  0  0  0
 13 15  1  0  0  0
 13 14  1  0  0  0
 16 20  1  0  0  0
 16 19  1  0  0  0
 16 18  1  0  0  0
  3 23  1  0  0  0
  7 24  1  0  0  0
 11 25  1  0  0  0
 18 26  1  0  0  0
M  $3D  4
M  $3D -9  9 C711-F
M  $3D 11 25    0.7500    0.7500
M  $3D -9  9 C1011-F
M  $3D 18 26    0.7500    0.7500
M  $3D -9  9 C511-F
M  $3D  7 24    0.7500    0.7500
M  $3D -9  9 C311-F
M  $3D  3 23    0.7500    0.7500
M  END
