C33
  MatStudio         3D                             0

  8  8  0  0  0  0  0  0  0  0999 V2000
   -4.3486    0.0369    0.0000 C   0  0  0  0  0  0  0  0  0  1
   -3.5786   -1.2968    0.0000 C   0  0  0  0  0  0  0  0  0  2
   -2.0386   -1.2968    0.0000 C   0  0  0  0  0  0  0  0  0  3
   -1.2686    0.0369    0.0000 C   0  0  0  0  0  0  0  0  0  4
   -2.0386    1.3705    0.0000 C   0  0  0  0  0  0  0  0  0  5
   -3.5786    1.3705    0.0000 C   0  0  0  0  0  0  0  0  0  6
   -1.6636   -1.9463    0.0000 F   0  0  0  0  0  0  0  0  0  7
   -3.9536    2.0201    0.0000 F   0  0  0  0  0  0  0  0  0  8
  1  6  4  0  0  0
  1  2  4  0  0  0
  2  3  4  0  0  0
  3  4  4  0  0  0
  3  7  1  0  0  0
  4  5  4  0  0  0
  5  6  4  0  0  0
  6  8  1  0  0  0
M  $3D  2
M  $3D -9  9 C6-H2
M  $3D  6  8    0.7500    0.7500
M  $3D -9  9 C3-H1
M  $3D  3  7    0.7500    0.7500
M  END
