C34
  MatStudio         3D                             0

  9  9  0  0  0  0  0  0  0  0999 V2000
   -0.9416    0.0008    0.0044 C   0  0  0  0  0  0  0  0  0  1
   -0.2427   -1.2112    0.0099 C   0  0  0  0  0  0  0  0  0  2
    1.1563   -1.2120    0.0055 C   0  0  0  0  0  0  0  0  0  3
    1.8565   -0.0008   -0.0044 C   0  0  0  0  0  0  0  0  0  4
    1.1577    1.2112   -0.0099 C   0  0  0  0  0  0  0  0  0  5
   -0.2414    1.2120   -0.0055 C   0  0  0  0  0  0  0  0  0  6
   -0.6181   -1.8605    0.0152 F   0  0  0  0  0  0  0  0  0  7
    2.6065   -0.0013   -0.0067 F   0  0  0  0  0  0  0  0  0  8
   -0.6160    1.8617   -0.0084 F   0  0  0  0  0  0  0  0  0  9
  1  2  4  0  0  0
  1  6  4  0  0  0
  2  3  4  0  0  0
  2  7  1  0  0  0
  3  4  4  0  0  0
  4  8  1  0  0  0
  4  5  4  0  0  0
  5  6  4  0  0  0
  6  9  1  0  0  0
M  $3D  3
M  $3D -9  9 C6-H3
M  $3D  6  9    0.7500    0.7500
M  $3D -9  9 C4-H2
M  $3D  4  8    0.7500    0.7500
M  $3D -9  9 C2-H1
M  $3D  2  7    0.7500    0.7500
M  END
