C35
  MatStudio         3D                             0

 12 12  0  0  0  0  0  0  0  0999 V2000
   -0.9822   -0.1352   -0.0026 C   0  0  0  0  0  0  0  0  0  1
   -0.2827   -1.3469    0.0001 C   0  0  0  0  0  0  0  0  0  2
    1.1163   -1.3470    0.0027 C   0  0  0  0  0  0  0  0  0  3
    1.8159   -0.1354    0.0026 C   0  0  0  0  0  0  0  0  0  4
    1.1165    1.0763   -0.0001 C   0  0  0  0  0  0  0  0  0  5
   -0.2826    1.0763   -0.0027 C   0  0  0  0  0  0  0  0  0  6
   -1.7322   -0.1352   -0.0040 F   0  0  0  0  0  0  0  0  0  7
   -0.6577   -1.9964    0.0001 F   0  0  0  0  0  0  0  0  0  8
    2.5659   -0.1354    0.0040 F   0  0  0  0  0  0  0  0  0  9
    1.4915    1.7258   -0.0001 F   0  0  0  0  0  0  0  0  0 10
    1.6863   -2.3343    0.0048 H   0  0  0  0  0  0  0  0  0  0
   -0.8525    2.0636   -0.0048 H   0  0  0  0  0  0  0  0  0  0
  1  7  1  0  0  0
  1  6  4  0  0  0
  1  2  4  0  0  0
  2  3  4  0  0  0
  2  8  1  0  0  0
  3  4  4  0  0  0
  4  9  1  0  0  0
  4  5  4  0  0  0
  5  6  4  0  0  0
  5 10  1  0  0  0
  3 11  1  0  0  0
  6 12  1  0  0  0
M  $3D  4
M  $3D -9  9 C1-H1
M  $3D  1  7    0.7500    0.7500
M  $3D -9  9 C2-H2
M  $3D  2  8    0.7500    0.7500
M  $3D -9  9 C4-H3
M  $3D  4  9    0.7500    0.7500
M  $3D -9  9 C5-H4
M  $3D  5 10    0.7500    0.7500
M  END
