C43
  MatStudio         3D                             0

 30 32  0  0  0  0  0  0  0  0999 V2000
   12.2879    9.3630    0.0000 C   0  0  0  0  0  0  0  0  0  1
   11.7609   10.6349    0.0000 N   0  3  0  0  0  0  0  0  0  2
   10.4177   10.9333    0.0000 C   0  0  0  0  0  0  0  0  0  3
    9.4605    9.9942    0.0000 C   0  0  0  0  0  0  0  0  0  4
    6.5137   11.9673    0.0000 C   0  0  0  0  0  0  0  0  0  5
    7.8097   11.6221    0.0000 C   0  0  0  0  0  0  0  0  0  6
    8.7582   12.5757    0.0000 C   0  0  0  0  0  0  0  0  0  7
    8.1762   10.3357    0.0000 C   0  0  0  0  0  0  0  0  0  8
   10.0498   12.2179    0.0000 C   0  0  0  0  0  0  0  0  0  9
    9.2202   14.6935    0.0000 O   0  0  0  0  0  0  0  0  0 10
    3.1177   17.0417    0.0000 F   0  0  0  0  0  0  0  0  0 11
    5.2443   16.8441    0.0000 H   0  0  0  0  0  0  0  0  0 12
    7.4588   16.2442    0.0000 H   0  0  0  0  0  0  0  0  0 13
    4.1380   12.8868    0.0000 H   0  0  0  0  0  0  0  0  0 14
   12.3524   11.4263    0.0000 H   0  0  0  0  0  0  0  0  0 15
    2.6286   16.4731    0.0000 C   0  0  0  0  0  0  0  0  0 16
    3.1556   15.2012    0.0000 N   0  3  0  0  0  0  0  0  0 17
    4.4988   14.9028    0.0000 C   0  0  0  0  0  0  0  0  0 18
    5.4560   15.8419    0.0000 C   0  0  0  0  0  0  0  0  0 19
    8.4028   13.8688    0.0000 C   0  0  0  0  0  0  0  0  0 20
    7.1068   14.2140    0.0000 C   0  0  0  0  0  0  0  0  0 21
    6.1583   13.2604    0.0000 C   0  0  0  0  0  0  0  0  0 22
    6.7403   15.5004    0.0000 C   0  0  0  0  0  0  0  0  0 23
    4.8667   13.6182    0.0000 C   0  0  0  0  0  0  0  0  0 24
    5.6963   11.1426    0.0000 O   0  0  0  0  0  0  0  0  0 25
   11.7988    8.7945    0.0000 F   0  0  0  0  0  0  0  0  0 26
    9.6722    8.9920    0.0000 H   0  0  0  0  0  0  0  0  0 27
    7.4577    9.5919    0.0000 H   0  0  0  0  0  0  0  0  0 28
   10.7785   12.9493    0.0000 H   0  0  0  0  0  0  0  0  0 29
    2.5641   14.4098    0.0000 H   0  0  0  0  0  0  0  0  0 30
  1  2  2  0  0  0
  1 26  1  0  0  0
  2 15  1  0  0  0
  2  3  1  0  0  0
  3  9  4  0  0  0
  3  4  4  0  0  0
  4 27  1  0  0  0
  4  8  4  0  0  0
  5 25  2  0  0  0
  5  6  1  0  0  0
  5 22  1  0  0  0
  6  7  4  0  0  0
  6  8  4  0  0  0
  7 20  1  0  0  0
  7  9  4  0  0  0
  8 28  1  0  0  0
  9 29  1  0  0  0
 10 20  2  0  0  0
 11 16  1  0  0  0
 12 19  1  0  0  0
 13 23  1  0  0  0
 14 24  1  0  0  0
 16 17  2  0  0  0
 17 30  1  0  0  0
 17 18  1  0  0  0
 18 19  4  0  0  0
 18 24  4  0  0  0
 19 23  4  0  0  0
 20 21  1  0  0  0
 21 23  4  0  0  0
 21 22  4  0  0  0
 22 24  4  0  0  0
M  $3D  2
M  $3D -9  9 C33-H1
M  $3D 16 11    0.7500    0.7500
M  $3D -9  9 C3-H16
M  $3D  1 26    0.7500    0.7500
M  END
