C44
  MatStudio         3D                             0

 30 33  0  0  0  0  0  0  0  0999 V2000
   -1.4586    2.0353    0.0140 C   0  0  0  0  0  0  0  0  0  1
   -0.6882    0.7015    0.0042 C   0  0  0  0  0  0  0  0  0  2
    0.8509    0.7056   -0.0018 C   0  0  0  0  0  0  0  0  0  3
    1.6114    2.0363   -0.0008 C   0  0  0  0  0  0  0  0  0  4
    0.8517    3.3746    0.0027 C   0  0  0  0  0  0  0  0  0  5
   -0.6893    3.3709    0.0118 C   0  0  0  0  0  0  0  0  0  6
    3.1379    2.0207    0.0001 C   0  0  0  0  0  0  0  0  0  7
    3.8971    0.6822    0.0006 C   0  0  0  0  0  0  0  0  0  8
    3.1496   -0.6367   -0.0101 O   0  0  0  0  0  0  0  0  0  9
    1.6330   -0.6218   -0.0067 C   0  0  0  0  0  0  0  0  0 10
    5.4376    0.6854    0.0140 C   0  0  0  0  0  0  0  0  0 11
    6.2072    2.0205    0.0230 C   0  0  0  0  0  0  0  0  0 12
    5.4376    3.3550    0.0137 C   0  0  0  0  0  0  0  0  0 13
    3.8985    3.3513    0.0041 C   0  0  0  0  0  0  0  0  0 14
    1.5995    4.6935   -0.0013 O   0  0  0  0  0  0  0  0  0 15
    3.1162    4.6785    0.0011 C   0  0  0  0  0  0  0  0  0 16
   -2.9985    2.0342    0.0278 C   0  0  0  0  0  0  0  0  0 17
   -3.7539    3.3414    0.0448 N   0  0  0  0  0  0  0  0  0 18
    7.7470    2.0197    0.0433 C   0  0  0  0  0  0  0  0  0 19
    8.5005    0.7112    0.0597 N   0  0  0  0  0  0  0  0  0 20
    3.8720    5.9855    0.0014 O   0  0  0  0  0  0  0  0  0 21
    0.8770   -1.9290   -0.0077 O   0  0  0  0  0  0  0  0  0 22
   -1.2566   -0.2867    0.0033 H   0  0  0  0  0  0  0  0  0 23
   -1.2613    4.3569    0.0172 H   0  0  0  0  0  0  0  0  0 24
    6.0092   -0.3009    0.0180 H   0  0  0  0  0  0  0  0  0 25
    6.0063    4.3429    0.0167 H   0  0  0  0  0  0  0  0  0 26
   -3.5679    1.0467    0.0267 H   0  0  0  0  0  0  0  0  0 27
    8.3176    3.0066    0.0478 H   0  0  0  0  0  0  0  0  0 28
   -4.5039    3.3409    0.0529 F   0  0  0  0  0  0  0  0  0  0
    9.2504    0.7105    0.0711 F   0  0  0  0  0  0  0  0  0  0
  1  6  4  0  0  0
  1 17  1  0  0  0
  1  2  4  0  0  0
  2  3  4  0  0  0
  2 23  1  0  0  0
  3  4  4  0  0  0
  3 10  1  0  0  0
  4  7  1  0  0  0
  4  5  4  0  0  0
  5  6  4  0  0  0
  5 15  1  0  0  0
  6 24  1  0  0  0
  7  8  4  0  0  0
  7 14  4  0  0  0
  8  9  1  0  0  0
  8 11  4  0  0  0
  9 10  1  0  0  0
 10 22  2  0  0  0
 11 12  4  0  0  0
 11 25  1  0  0  0
 12 13  4  0  0  0
 12 19  1  0  0  0
 13 14  4  0  0  0
 13 26  1  0  0  0
 14 16  1  0  0  0
 15 16  1  0  0  0
 16 21  2  0  0  0
 17 18  2  0  0  0
 17 27  1  0  0  0
 19 28  1  0  0  0
 19 20  2  0  0  0
 18 29  1  0  0  0
 20 30  1  0  0  0
M  $3D  2
M  $3D -9  9 N1-F
M  $3D 18 29    0.7500    0.7500
M  $3D -9  9 N2-F
M  $3D 20 30    0.7500    0.7500
M  END
