C47
  MatStudio         3D                             0

 32 33  0  0  0  0  0  0  0  0999 V2000
    1.6717   15.9364   -0.0062 N   0  0  0  0  0  0  0  0  0  1
    1.3834   17.4184   -0.0077 C   0  0  0  0  0  0  0  0  0  2
    3.1007   15.4499   -0.0007 C   0  0  0  0  0  0  0  0  0  3
    4.2574   16.4661    0.0061 C   0  0  0  0  0  0  0  0  0  4
    5.7162   15.9721    0.0090 C   0  0  0  0  0  0  0  0  0  5
    6.0172   14.4619    0.0049 C   0  0  0  0  0  0  0  0  0  6
    4.8603   13.4457    0.0001 C   0  0  0  0  0  0  0  0  0  7
    3.4017   13.9397   -0.0025 C   0  0  0  0  0  0  0  0  0  8
    0.6743   17.6626   -0.0108 F   0  0  0  0  0  0  0  0  0  9
    4.0335   17.5840    0.0087 H   0  0  0  0  0  0  0  0  0 10
    2.5450   13.1877   -0.0062 H   0  0  0  0  0  0  0  0  0 11
    6.5728   16.7243    0.0137 H   0  0  0  0  0  0  0  0  0 12
    5.0843   12.3278   -0.0020 H   0  0  0  0  0  0  0  0  0 13
    7.4744   13.9650    0.0043 C   0  0  0  0  0  0  0  0  0 14
   13.5665   10.4677    0.0048 N   0  0  0  0  0  0  0  0  0 15
   13.8496    8.9847    0.0083 C   0  0  0  0  0  0  0  0  0 16
   12.1392   10.9588    0.0002 C   0  0  0  0  0  0  0  0  0 17
   10.9797    9.9459   -0.0040 C   0  0  0  0  0  0  0  0  0 18
    9.5225   10.4438   -0.0059 C   0  0  0  0  0  0  0  0  0 19
    9.2255   11.9548   -0.0028 C   0  0  0  0  0  0  0  0  0 20
   10.3850   12.9680   -0.0006 C   0  0  0  0  0  0  0  0  0 21
   11.8424   12.4699    0.0007 C   0  0  0  0  0  0  0  0  0 22
   12.9861    8.2402    0.0075 H   0  0  0  0  0  0  0  0  0 23
   11.2006    8.8274   -0.0054 H   0  0  0  0  0  0  0  0  0 24
   12.7011   13.2196    0.0027 H   0  0  0  0  0  0  0  0  0 25
    8.6639    9.6940   -0.0087 H   0  0  0  0  0  0  0  0  0 26
   10.1641   14.0865    0.0001 H   0  0  0  0  0  0  0  0  0 27
    7.7691   12.4540   -0.0016 C   0  0  0  0  0  0  0  0  0 28
    8.3340   14.7140    0.0074 H   0  0  0  0  0  0  0  0  0 29
    6.9089   11.7057   -0.0041 H   0  0  0  0  0  0  0  0  0 30
    2.2443   18.1660   -0.0050 H   0  0  0  0  0  0  0  0  0  0
   14.5578    8.7379    0.0107 F   0  0  0  0  0  0  0  0  0  0
  1  3  1  0  0  0
  1  2  2  0  0  0
  2  9  1  0  0  0
  3  4  4  0  0  0
  3  8  4  0  0  0
  4  5  4  0  0  0
  4 10  1  0  0  0
  5  6  4  0  0  0
  5 12  1  0  0  0
  6  7  4  0  0  0
  6 14  1  0  0  0
  7 13  1  0  0  0
  7  8  4  0  0  0
  8 11  1  0  0  0
 14 28  2  0  0  0
 14 29  1  0  0  0
 15 17  1  0  0  0
 15 16  2  0  0  0
 16 23  1  0  0  0
 17 22  4  0  0  0
 17 18  4  0  0  0
 18 24  1  0  0  0
 18 19  4  0  0  0
 19 20  4  0  0  0
 19 26  1  0  0  0
 20 21  4  0  0  0
 20 28  1  0  0  0
 21 27  1  0  0  0
 21 22  4  0  0  0
 22 25  1  0  0  0
 28 30  1  0  0  0
  2 31  1  0  0  0
 16 32  1  0  0  0
M  $3D  2
M  $3D -9  9 C1-H1
M  $3D  2  9    0.7500    0.7500
M  $3D -9  9 C9-F
M  $3D 16 32    0.7500    0.7500
M  END
