C49
  MatStudio         3D                             0

 13 14  0  0  0  0  0  0  0  0999 V2000
   -0.3774    0.1082    0.0586 C   0  0  0  0  0  0  0  0  0  1
    0.6278   -0.7933    0.7904 N   0  0  0  0  0  0  0  0  0  2
    2.0251   -0.2719    0.6294 C   0  0  0  0  0  0  0  0  0  3
    1.9499    0.9759   -0.2128 C   0  0  0  0  0  0  0  0  0  4
    0.5076    1.2033   -0.5570 N   0  0  0  0  0  0  0  0  0  5
   -1.4480    0.6753    1.0026 N   0  0  0  0  0  0  0  0  0  6
   -2.8218    0.2742    0.5534 C   0  0  0  0  0  0  0  0  0  7
   -2.6662   -0.5581   -0.6927 C   0  0  0  0  0  0  0  0  0  8
   -1.1992   -0.6552   -0.9909 N   0  0  0  0  0  0  0  0  0  9
   -3.4681    0.4542    0.8885 F   0  0  0  0  0  0  0  0  0  0
   -3.2211   -0.8670   -1.0916 F   0  0  0  0  0  0  0  0  0  0
    2.6477   -0.5766    0.9158 F   0  0  0  0  0  0  0  0  0  0
    2.5284    1.4053   -0.4216 F   0  0  0  0  0  0  0  0  0  0
  1  6  1  0  0  0
  1  2  1  0  0  0
  1  5  1  0  0  0
  1  9  1  0  0  0
  2  3  2  0  0  0
  3  4  1  0  0  0
  4  5  2  0  0  0
  6  7  2  0  0  0
  7  8  1  0  0  0
  8  9  2  0  0  0
  7 10  1  0  0  0
  8 11  1  0  0  0
  3 12  1  0  0  0
  4 13  1  0  0  0
M  $3D  4
M  $3D -9  9 C4-F
M  $3D  7 10    0.7500    0.7500
M  $3D -9  9 C5-F
M  $3D  8 11    0.7500    0.7500
M  $3D -9  9 C2-F
M  $3D  3 12    0.7500    0.7500
M  $3D -9  9 C3-F
M  $3D  4 13    0.7500    0.7500
M  END
