C62
  MatStudio         3D                             0

 92102  0  0  0  0  0  0  0  0999 V2000
    6.4850   25.8153   -6.8177 C   0  0  0  0  0  0  0  0  0  1
    5.2255   25.8821   -7.6858 C   0  0  0  0  0  0  0  0  0  2
    5.3248   25.5475   -9.1796 C   0  0  0  0  0  0  0  0  0  3
    6.7068   25.3223   -9.8287 C   0  0  0  0  0  0  0  0  0  4
    7.9650   25.2475   -8.9502 C   0  0  0  0  0  0  0  0  0  5
    7.8405   25.4736   -7.4404 C   0  0  0  0  0  0  0  0  0  6
    6.4121   26.1527   -5.3287 C   0  0  0  0  0  0  0  0  0  7
    5.1241   26.7361   -4.7388 C   0  0  0  0  0  0  0  0  0  8
    3.8205   26.7256   -5.5786 C   0  0  0  0  0  0  0  0  0  9
    3.8767   26.2818   -7.0591 C   0  0  0  0  0  0  0  0  0 10
    2.5845   26.2098   -7.9015 C   0  0  0  0  0  0  0  0  0 11
    2.6775   25.8068   -9.4024 C   0  0  0  0  0  0  0  0  0 12
    4.0465   25.4679  -10.0235 C   0  0  0  0  0  0  0  0  0 13
    9.3517   25.0228   -9.5813 C   0  0  0  0  0  0  0  0  0 14
   10.6038   24.9194   -8.6772 C   0  0  0  0  0  0  0  0  0 15
   10.4532   25.0932   -7.1426 C   0  0  0  0  0  0  0  0  0 16
    9.0811   25.4296   -6.5472 C   0  0  0  0  0  0  0  0  0 17
    6.8395   25.2254  -11.3553 C   0  0  0  0  0  0  0  0  0 18
    8.2271   25.0753  -12.0091 C   0  0  0  0  0  0  0  0  0 19
    9.5006   25.0097  -11.1181 C   0  0  0  0  0  0  0  0  0 20
    5.2478   27.3857   -3.3477 C   0  0  0  0  0  0  0  0  0 21
   11.6297   25.0067   -6.1512 C   0  0  0  0  0  0  0  0  0 22
    8.2879   25.0445  -13.5516 C   0  0  0  0  0  0  0  0  0 23
    1.4525   25.7300  -10.3386 C   0  0  0  0  0  0  0  0  0 24
    6.3516   26.8644   -2.4101 C   0  0  0  0  0  0  0  0  0 25
    6.7716   27.6816   -1.1783 C   0  0  0  0  0  0  0  0  0 26
    6.1174   29.0455   -0.9066 C   0  0  0  0  0  0  0  0  0 27
    4.9286   29.5116   -1.7714 C   0  0  0  0  0  0  0  0  0 28
    4.4783   28.6700   -2.9849 C   0  0  0  0  0  0  0  0  0 29
    0.2607   26.6969  -10.2044 C   0  0  0  0  0  0  0  0  0 30
   -0.8879   26.6533  -11.2330 C   0  0  0  0  0  0  0  0  0 31
   12.6916   23.8948   -6.2441 C   0  0  0  0  0  0  0  0  0 32
   13.6934   23.6932   -5.0884 C   0  0  0  0  0  0  0  0  0 33
   13.6463   24.6160   -3.8548 C   0  0  0  0  0  0  0  0  0 34
   12.6458   25.7814   -3.8084 C   0  0  0  0  0  0  0  0  0 35
   11.6210   25.9563   -4.9397 C   0  0  0  0  0  0  0  0  0 36
    7.1560   25.7174  -14.3505 C   0  0  0  0  0  0  0  0  0 37
    9.5234   24.4375  -15.8365 C   0  0  0  0  0  0  0  0  0 38
    9.4252   24.3288  -14.3028 C   0  0  0  0  0  0  0  0  0 39
    2.4554   27.0632   -4.9473 C   0  0  0  0  0  0  0  0  0 40
   10.9255   25.0591  -11.7184 C   0  0  0  0  0  0  0  0  0 41
   11.9911   24.7732   -9.3354 C   0  0  0  0  0  0  0  0  0 42
   13.1386   24.7399  -11.2885 H   0  0  0  0  0  0  0  0  0 43
   14.5587   24.3502   -2.6429 C   0  0  0  0  0  0  0  0  0 44
    6.6946   29.9576    0.1936 C   0  0  0  0  0  0  0  0  0 45
    7.3157   25.9703   -4.6580 H   0  0  0  0  0  0  0  0  0 46
    4.1049   25.1563  -11.1185 H   0  0  0  0  0  0  0  0  0 47
    8.9886   25.6476   -5.4321 H   0  0  0  0  0  0  0  0  0 48
    5.9084   25.2644  -12.0119 H   0  0  0  0  0  0  0  0  0 49
    7.5664   27.2758   -0.4690 H   0  0  0  0  0  0  0  0  0 50
    4.3815   30.4783   -1.5149 H   0  0  0  0  0  0  0  0  0 51
    3.5824   28.9938   -3.6109 H   0  0  0  0  0  0  0  0  0 52
    0.2275   27.4449   -9.3447 H   0  0  0  0  0  0  0  0  0 53
   -1.7740   27.3629  -11.1285 H   0  0  0  0  0  0  0  0  0 54
   12.7356   23.2241   -7.1648 H   0  0  0  0  0  0  0  0  0 55
   14.4700   22.8606   -5.1459 H   0  0  0  0  0  0  0  0  0 56
   12.6647   26.5145   -2.9356 H   0  0  0  0  0  0  0  0  0 57
   10.8513   26.7949   -4.8783 H   0  0  0  0  0  0  0  0  0 58
    6.2491   26.1426  -13.8063 H   0  0  0  0  0  0  0  0  0 59
   10.3876   23.9402  -16.3891 H   0  0  0  0  0  0  0  0  0 60
   10.1948   23.7183  -13.7243 H   0  0  0  0  0  0  0  0  0 61
   14.5680   25.0783   -1.7658 H   0  0  0  0  0  0  0  0  0 62
   12.1307   24.8459  -10.8357 N   0  0  0  0  0  0  0  0  0 63
    6.1784   31.3660    0.3644 N   0  0  0  0  0  0  0  0  0 64
   -3.0853   26.6350  -13.3934 N   0  0  0  0  0  0  0  0  0 65
   15.4432   23.1274   -2.6097 N   0  0  0  0  0  0  0  0  0 66
    2.3551   27.4456   -3.4914 O   0  0  0  0  0  0  0  0  0 67
   13.2375   24.6550   -8.4978 O   0  0  0  0  0  0  0  0  0 68
    7.5152   29.5696    0.8833 H   0  0  0  0  0  0  0  0  0 69
    6.6397   31.9086    0.5995 F   0  0  0  0  0  0  0  0  0  0
   -3.0048   27.2647  -12.9939 F   0  0  0  0  0  0  0  0  0  0
   16.1105   23.1564   -2.2687 F   0  0  0  0  0  0  0  0  0  0
   -0.8393   25.6508  -12.4031 C   0  0  0  0  0  0  0  0  0 70
    0.3462   24.6801  -12.5311 C   0  0  0  0  0  0  0  0  0 71
    1.4990   24.7361  -11.5146 C   0  0  0  0  0  0  0  0  0 72
    7.2457   25.8179  -15.8843 C   0  0  0  0  0  0  0  0  0 73
    8.4549   25.2176  -16.6248 C   0  0  0  0  0  0  0  0  0 74
    1.2296   26.4532   -7.1965 C   0  0  0  0  0  0  0  0  0 75
   -1.9550   25.6370  -13.4650 C   0  0  0  0  0  0  0  0  0 76
    8.5969   25.4015  -18.1486 C   0  0  0  0  0  0  0  0  0 77
    0.2174   27.1805   -5.2868 H   0  0  0  0  0  0  0  0  0 78
    6.8613   25.8682   -2.6281 H   0  0  0  0  0  0  0  0  0 79
    0.3707   23.9190  -13.3795 H   0  0  0  0  0  0  0  0  0 80
    2.3942   24.0396  -11.6291 H   0  0  0  0  0  0  0  0  0 81
    6.4175   26.3363  -16.4717 H   0  0  0  0  0  0  0  0  0 82
    1.1888   26.9268   -5.7601 N   0  0  0  0  0  0  0  0  0 83
    9.8062   24.8510  -18.8682 N   0  0  0  0  0  0  0  0  0 84
   -0.0727   26.1441   -7.8894 O   0  0  0  0  0  0  0  0  0 85
   11.1570   25.4360  -13.1593 O   0  0  0  0  0  0  0  0  0 86
    7.7891   25.9532  -18.7339 H   0  0  0  0  0  0  0  0  0 87
   -1.9291   24.8712  -14.3090 H   0  0  0  0  0  0  0  0  0 88
   10.4936   25.0831  -18.6781 F   0  0  0  0  0  0  0  0  0  0
  1  7  4  0  0  0
  1  2  4  0  0  0
  1  6  1  0  0  0
  2  3  4  0  0  0
  2 10  4  0  0  0
  3  4  1  0  0  0
  3 13  4  0  0  0
  4  5  4  0  0  0
  4 18  4  0  0  0
  5 14  4  0  0  0
  5  6  4  0  0  0
  6 17  4  0  0  0
  7  8  4  0  0  0
  7 46  1  0  0  0
  8  9  4  0  0  0
  8 21  1  0  0  0
  9 10  4  0  0  0
  9 40  1  0  0  0
 10 11  4  0  0  0
 11 12  4  0  0  0
 12 24  1  0  0  0
 12 13  4  0  0  0
 13 47  1  0  0  0
 14 20  4  0  0  0
 14 15  4  0  0  0
 15 16  4  0  0  0
 15 42  1  0  0  0
 16 17  4  0  0  0
 16 22  1  0  0  0
 17 48  1  0  0  0
 18 49  1  0  0  0
 18 19  4  0  0  0
 19 20  4  0  0  0
 19 23  1  0  0  0
 20 41  1  0  0  0
 21 25  4  0  0  0
 21 29  4  0  0  0
 22 32  4  0  0  0
 22 36  4  0  0  0
 23 37  4  0  0  0
 23 39  4  0  0  0
 24 30  4  0  0  0
 25 26  4  0  0  0
 26 50  1  0  0  0
 26 27  4  0  0  0
 27 28  4  0  0  0
 27 45  1  0  0  0
 28 29  4  0  0  0
 28 51  1  0  0  0
 29 52  1  0  0  0
 30 53  1  0  0  0
 30 31  4  0  0  0
 31 54  1  0  0  0
 32 55  1  0  0  0
 32 33  4  0  0  0
 33 34  4  0  0  0
 33 56  1  0  0  0
 34 35  4  0  0  0
 34 44  1  0  0  0
 35 36  4  0  0  0
 35 57  1  0  0  0
 36 58  1  0  0  0
 37 59  1  0  0  0
 38 39  4  0  0  0
 38 60  1  0  0  0
 39 61  1  0  0  0
 40 67  2  0  0  0
 41 63  1  0  0  0
 42 63  1  0  0  0
 42 68  2  0  0  0
 43 63  1  0  0  0
 44 66  2  0  0  0
 44 62  1  0  0  0
 45 69  1  0  0  0
 45 64  2  0  0  0
 64 70  1  0  0  0
 65 71  1  0  0  0
 66 72  1  0  0  0
 73 79  1  0  0  0
 73 74  4  0  0  0
 74 83  1  0  0  0
 74 75  4  0  0  0
 75 84  1  0  0  0
 76 77  4  0  0  0
 76 85  1  0  0  0
 77 80  1  0  0  0
 78 88  2  0  0  0
 78 86  1  0  0  0
 79 91  1  0  0  0
 80 90  1  0  0  0
 80 87  2  0  0  0
 81 86  1  0  0  0
 87 92  1  0  0  0
 82 25  1  0  0  0
 41 89  2  0  0  0
 79 65  2  0  0  0
 40 86  1  0  0  0
 78 11  1  0  0  0
 24 75  4  0  0  0
 31 73  4  0  0  0
 76 37  4  0  0  0
 38 77  4  0  0  0
M  $3D  4
M  $3D -9  9 N180-F
M  $3D 64 70    0.7500    0.7500
M  $3D -9  9 N182-F
M  $3D 66 72    0.7500    0.7500
M  $3D -9  9 N181-F
M  $3D 65 71    0.7500    0.7500
M  $3D -9  9 N2-F
M  $3D 87 92    0.7500    0.7500
M  END
