C70
  MatStudio         3D                             0

 30 33  0  0  0  0  0  0  0  0999 V2000
    4.3162    9.4679    1.7592 C   0  0  0  0  0  0  0  0  0  1
    0.3112   17.5100    1.8367 C   0  0  0  0  0  0  0  0  0  2
   -4.6479   10.0175    1.7641 C   0  0  0  0  0  0  0  0  0  3
    0.8465   13.6005    1.8126 C   0  0  0  0  0  0  0  0  0  4
   -0.6745   13.7180    1.7952 C   0  0  0  0  0  0  0  0  0  5
    1.4237   15.0108    1.8220 C   0  0  0  0  0  0  0  0  0  6
    0.2151   15.9733    1.8122 C   0  0  0  0  0  0  0  0  0  7
   -1.0899   15.1765    1.7911 O   0  0  0  0  0  0  0  0  0  8
   -1.5312   12.4380    1.7966 C   0  0  0  0  0  0  0  0  0  9
   -0.8723   11.0623    1.8174 C   0  0  0  0  0  0  0  0  0 10
   -3.0410   12.2316    1.7761 C   0  0  0  0  0  0  0  0  0 11
   -3.2694   10.7034    1.7869 C   0  0  0  0  0  0  0  0  0 12
   -1.9267    9.9726    1.8143 O   0  0  0  0  0  0  0  0  0 13
    0.6641   10.9606    1.8267 C   0  0  0  0  0  0  0  0  0 14
    1.5265   12.2187    1.8246 C   0  0  0  0  0  0  0  0  0 15
    1.5963    9.7555    1.8125 C   0  0  0  0  0  0  0  0  0 16
    3.0343   10.3205    1.7991 C   0  0  0  0  0  0  0  0  0 17
    2.9973   11.8491    1.8114 O   0  0  0  0  0  0  0  0  0 18
    2.5268   15.2983    1.8399 H   0  0  0  0  0  0  0  0  0 19
   -3.8419   13.0424    1.7539 H   0  0  0  0  0  0  0  0  0 20
    1.2933    8.6564    1.8026 H   0  0  0  0  0  0  0  0  0 21
    4.2191    7.9617    1.7232 N   0  0  0  0  0  0  0  0  0 22
    5.3376    9.9744    1.7522 H   0  0  0  0  0  0  0  0  0 23
   -0.6382   18.1409    1.8250 H   0  0  0  0  0  0  0  0  0 24
    1.6634   18.1805    1.8821 N   0  0  0  0  0  0  0  0  0 25
   -4.7196    8.8801    1.7850 H   0  0  0  0  0  0  0  0  0 26
   -5.9045   10.8527    1.7088 N   0  0  0  0  0  0  0  0  0 27
    4.8432    7.5463    1.7012 F   0  0  0  0  0  0  0  0  0  0
    1.7105   18.9289    1.8972 F   0  0  0  0  0  0  0  0  0  0
   -5.8564   11.6010    1.6907 F   0  0  0  0  0  0  0  0  0  0
  1 23  1  0  0  0
  1 17  1  0  0  0
  1 22  2  0  0  0
  2 25  2  0  0  0
  2 24  1  0  0  0
  2  7  1  0  0  0
  3 26  1  0  0  0
  3 27  2  0  0  0
  3 12  1  0  0  0
  4  5  4  0  0  0
  4  6  4  0  0  0
  4 15  4  0  0  0
  5  9  4  0  0  0
  5  8  4  0  0  0
  6  7  4  0  0  0
  6 19  1  0  0  0
  7  8  4  0  0  0
  9 10  4  0  0  0
  9 11  4  0  0  0
 10 14  4  0  0  0
 10 13  4  0  0  0
 11 12  4  0  0  0
 11 20  1  0  0  0
 12 13  4  0  0  0
 14 15  4  0  0  0
 14 16  4  0  0  0
 15 18  4  0  0  0
 16 17  4  0  0  0
 16 21  1  0  0  0
 17 18  4  0  0  0
 22 28  1  0  0  0
 25 29  1  0  0  0
 27 30  1  0  0  0
M  $3D  3
M  $3D -9  9 N2-F
M  $3D 25 29    0.7500    0.7500
M  $3D -9  9 N1-F
M  $3D 22 28    0.7500    0.7500
M  $3D -9  9 N3-F
M  $3D 27 30    0.7500    0.7500
M  END
