C8
  MatStudio         3D                             0

 36 42  0  0  0  0  0  0  0  0999 V2000
   -0.6340   20.0456    1.7721 C   0  0  0  0  0  0  0  0  0  1
   -1.4295   21.2429    1.7452 C   0  0  0  0  0  0  0  0  0  2
   -2.8520   21.1164    1.7435 C   0  0  0  0  0  0  0  0  0  3
   -3.4386   19.8620    1.7657 C   0  0  0  0  0  0  0  0  0  4
   -2.6855   18.7289    1.8013 C   0  0  0  0  0  0  0  0  0  5
   -1.3016   18.7839    1.8114 C   0  0  0  0  0  0  0  0  0  6
   -3.4473   17.5718    1.8398 O   0  0  0  0  0  0  0  0  0  7
   -4.7935   18.1457    1.8212 B   0  0  0  0  0  0  0  0  0  8
   -4.8011   19.6085    1.7757 O   0  0  0  0  0  0  0  0  0  9
    0.7893   20.1351    1.7673 C   0  0  0  0  0  0  0  0  0 10
    1.4285   21.4226    1.7950 C   0  0  0  0  0  0  0  0  0 11
    1.6098   18.9670    1.7273 C   0  0  0  0  0  0  0  0  0 12
    2.9896   19.0859    1.7374 C   0  0  0  0  0  0  0  0  0 13
    3.5948   20.3044    1.7737 C   0  0  0  0  0  0  0  0  0 14
    2.8556   21.4754    1.7967 C   0  0  0  0  0  0  0  0  0 15
    4.9783   20.2237    1.7637 O   0  0  0  0  0  0  0  0  0 16
    5.1541   18.7715    1.7173 B   0  0  0  0  0  0  0  0  0 17
    3.8904   18.0334    1.6983 O   0  0  0  0  0  0  0  0  0 18
   -0.7948   22.5202    1.7402 C   0  0  0  0  0  0  0  0  0 19
    0.6388   22.6104    1.8008 C   0  0  0  0  0  0  0  0  0 20
    1.2385   23.9051    1.8585 C   0  0  0  0  0  0  0  0  0 21
    0.4465   25.0406    1.8182 C   0  0  0  0  0  0  0  0  0 22
   -0.9086   24.9554    1.7243 C   0  0  0  0  0  0  0  0  0 23
   -1.5521   23.7296    1.6832 C   0  0  0  0  0  0  0  0  0 24
   -1.5290   26.1941    1.6865 O   0  0  0  0  0  0  0  0  0 25
   -0.3616   27.0726    1.7719 B   0  0  0  0  0  0  0  0  0 26
    0.9068   26.3472    1.8568 O   0  0  0  0  0  0  0  0  0 27
   -3.5343   21.9466    1.7409 H   0  0  0  0  0  0  0  0  0 28
   -0.8004   17.8348    1.8669 H   0  0  0  0  0  0  0  0  0 29
    1.2314   17.9627    1.6712 H   0  0  0  0  0  0  0  0  0 30
    3.4286   22.3845    1.7998 H   0  0  0  0  0  0  0  0  0 31
    2.2956   24.0802    1.9404 H   0  0  0  0  0  0  0  0  0 32
   -2.6228   23.7709    1.6015 H   0  0  0  0  0  0  0  0  0 33
   -5.3933   17.6956    1.8348 F   0  0  0  0  0  0  0  0  0  0
    5.8440   18.4774    1.7057 F   0  0  0  0  0  0  0  0  0  0
   -0.4516   27.8172    1.7691 F   0  0  0  0  0  0  0  0  0  0
  1  6  4  0  0  0
  1  2  4  0  0  0
  1 10  4  0  0  0
  2  3  4  0  0  0
  2 19  4  0  0  0
  3  4  4  0  0  0
  3 28  1  0  0  0
  4  9  1  0  0  0
  4  5  4  0  0  0
  5  6  4  0  0  0
  5  7  1  0  0  0
  6 29  1  0  0  0
  7  8  1  0  0  0
  8  9  1  0  0  0
 10 12  4  0  0  0
 10 11  4  0  0  0
 11 20  4  0  0  0
 11 15  4  0  0  0
 12 30  1  0  0  0
 12 13  4  0  0  0
 13 18  1  0  0  0
 13 14  4  0  0  0
 14 15  4  0  0  0
 14 16  1  0  0  0
 15 31  1  0  0  0
 16 17  1  0  0  0
 17 18  1  0  0  0
 19 24  4  0  0  0
 19 20  4  0  0  0
 20 21  4  0  0  0
 21 32  1  0  0  0
 21 22  4  0  0  0
 22 27  1  0  0  0
 22 23  4  0  0  0
 23 25  1  0  0  0
 23 24  4  0  0  0
 24 33  1  0  0  0
 25 26  1  0  0  0
 26 27  1  0  0  0
  8 34  1  0  0  0
 17 35  1  0  0  0
 26 36  1  0  0  0
M  $3D  3
M  $3D -9  9 B3-F
M  $3D 26 36    0.7500    0.7500
M  $3D -9  9 B2-F
M  $3D 17 35    0.7500    0.7500
M  $3D -9  9 B1-F
M  $3D  8 34    0.7500    0.7500
M  END
